<?xml version="1.0" encoding="UTF-8"?>

<!-- generated on 2025-06-18 12:30:20.563316 by randomTrips.py UNKNOWN
<configuration>
    <net-file value="map.net.xml"/>
    <output-trip-file value="car_trips.xml"/>
    <route-file value="car_routes.rou.xml"/>
    <vtype-output value="car_vtypes.xml"/>
    <trip-attributes value="type=&quot;carType&quot; color=&quot;255,255,255&quot;"/>
    <end value="1200.0"/>
    <flows value="150"/>
</configuration>
-->

<!-- generated on 2025-06-18 12:30:20 by Eclipse SUMO duarouter Version 1.23.1
<duarouterConfiguration xmlns:xsi="http://www.w3.org/2001/XMLSchema-instance" xsi:noNamespaceSchemaLocation="http://sumo.dlr.de/xsd/duarouterConfiguration.xsd">

    <input>
        <net-file value="map.net.xml"/>
        <route-files value="car_trips.xml"/>
    </input>

    <output>
        <output-file value="car_routes.rou.xml"/>
        <vtype-output value="car_vtypes.xml"/>
        <alternatives-output value="NUL"/>
    </output>

    <time>
        <begin value="0"/>
        <end value="1200.0"/>
    </time>

    <report>
        <no-warnings value="true"/>
        <ignore-errors value="true"/>
        <no-step-log value="true"/>
    </report>

</duarouterConfiguration>
-->

<routes xmlns:xsi="http://www.w3.org/2001/XMLSchema-instance" xsi:noNamespaceSchemaLocation="http://sumo.dlr.de/xsd/routes_file.xsd">
    <vehicle id="car0.0" type="carType" depart="0.00" color="white">
        <route edges="254760012#1 254760012#2 254760012#3 254760012#4 254760012#5 254759940#0 254759940#1 254759940#2 1286659590 27028861#3 27028861#4 27028861#5 -1286659589"/>
    </vehicle>
    <vehicle id="car1.0" type="carType" depart="0.00" color="white">
        <route edges="-391862870#5 -391862870#4 -391862870#3 -391862870#2 -391862870#1 24547816 254760012#2 254760012#3 254760012#4 254760012#5 254759940#0 254759940#1 254759940#2 1286659590 -27028861#2 -27028861#1"/>
    </vehicle>
    <vehicle id="car10.0" type="carType" depart="0.00" color="white">
        <route edges="397130841#1 397130841#2 27028821#0 27028821#1 27028821#2 391862870#0 391862870#1 391862870#2 391862870#3 391862870#4 391862870#5 419657507#0 419657507#1 419657507#2 419657507#3 419657507#4 419657507#5 419657507#6 27028861#0 27028861#1 27028861#2 27028861#3"/>
    </vehicle>
    <vehicle id="car100.0" type="carType" depart="0.00" color="white">
        <route edges="8918770#2 8918770#3 8918770#4 8918770#5 -254759940#1 -254759940#0 254759910#0 254759910#1 254759910#2 254759910#3 -24444959#4 -24444959#3 -24444959#2 -24444959#1 8917043#4 8917043#5 8917043#6"/>
    </vehicle>
    <vehicle id="car101.0" type="carType" depart="0.00" color="white">
        <route edges="419657507#2 419657507#3 -419657507#3 -419657507#2 -419657507#1 -419657507#0 -391862870#5 -391862870#4 -391862870#3 -391862870#2 -391862870#1 -391862870#0 -27028821#2 -27028821#1 -27028821#0 -397130841#2 -397130841#1 -397130841#0 -397130840 -24138763#1 -24138763#0 -254759941#1 -254759941#0"/>
    </vehicle>
    <vehicle id="car102.0" type="carType" depart="0.00" color="white">
        <route edges="1286659588 970578569#0 -970578569#0 -1286659588 -27028861#7 -27028861#6 -27028861#5 -27028861#4 -27028861#3 -27028861#2 -27028861#1 -27028861#0 27028828#0 27028828#1 27028828#2 -27028828#2 -27028828#1"/>
    </vehicle>
    <vehicle id="car103.0" type="carType" depart="0.00" color="white">
        <route edges="-8917786#3 -8917786#2 -8917786#1 -8917786#0 27028861#4 27028861#5 -1286659589 -488985772#6 -488985772#5 -488985772#4 -488985772#3 -488985772#2 -488985772#1 -488985772#0 -24444954#2 -24444954#1 -24444954#0"/>
    </vehicle>
    <vehicle id="car104.0" type="carType" depart="0.00" color="white">
        <route edges="-488985772#3 488985772#3 488985772#4 488985772#5 488985772#6 1286659589 27028861#6 27028861#7 1286659588 970578569#0"/>
    </vehicle>
    <vehicle id="car105.0" type="carType" depart="0.00" color="white">
        <route edges="-391862870#2 -391862870#1 -391862870#0 -27028821#2 -27028821#1 -27028821#0 -397130841#2 -397130841#1 -397130841#0 -397130840 -24138763#1 -24138763#0 397125842#0 397125842#1"/>
    </vehicle>
    <vehicle id="car106.0" type="carType" depart="0.00" color="white">
        <route edges="1034377068#0 1034377068#1 1034377068#2 1034377069#0 1034377069#1 27028861#0 27028861#1 27028861#2 -1286659590 -254759940#2 -8918770#5"/>
    </vehicle>
    <vehicle id="car107.0" type="carType" depart="0.00" color="white">
        <route edges="8917786#4 8917786#5 -8917786#5 -8917786#4 -8917786#3 -8917786#2 -8917786#1 -8917786#0 27028861#4 27028861#5 27028861#6 27028861#7 1286659588 970578569#0 970578569#1 970578569#2 970578569#3"/>
    </vehicle>
    <vehicle id="car108.0" type="carType" depart="0.00" color="white">
        <route edges="24444959#6 24444959#7 24444959#8 24444959#9 24444959#10 1286659587 27028861#9"/>
    </vehicle>
    <vehicle id="car109.0" type="carType" depart="0.00" color="white">
        <route edges="-254759931#3 24444959#3 24444959#4 -254759910#3 -254759910#2 -254759910#1 -254759910#0 -419657503#1 -419657503#0 -419633758#2 -419633758#1"/>
    </vehicle>
    <vehicle id="car11.0" type="carType" depart="0.00" color="white">
        <route edges="-419657507#6 -419657507#5 -419657507#4 -419657507#3 -419657507#2 -419657507#1 -419657507#0 419657503#0 419657503#1 254759910#0 254759910#1 254759910#2 254759910#3 -24444959#4 -24444959#3 -254759931#2"/>
    </vehicle>
    <vehicle id="car110.0" type="carType" depart="0.00" color="white">
        <route edges="8918770#2 8918770#3 8918770#4 8918770#5 -254759940#1 -254759940#0 254759910#0 254759910#1 254759910#2"/>
    </vehicle>
    <vehicle id="car111.0" type="carType" depart="0.00" color="white">
        <route edges="24444959#2 -24444959#2 -24444959#1 -24444959#0 397125839#0 397125839#1 397125839#2 397125835#0 397125835#1"/>
    </vehicle>
    <vehicle id="car112.0" type="carType" depart="0.00" color="white">
        <route edges="-24444954#2 24444954#2 488985772#0 488985772#1 488985772#2 488985772#3 254759910#1 254759910#2 254759910#3 254759910#4"/>
    </vehicle>
    <vehicle id="car113.0" type="carType" depart="0.00" color="white">
        <route edges="162324928#2 162324928#3 162324928#4 162324928#5 27028821#0 27028821#1 27028821#2 391862870#0 391862870#1 391862870#2 391862870#3 391862870#4 391862870#5 419657507#0 419657507#1 419657507#2 419657507#3 419657507#4 419657507#5 419657507#6"/>
    </vehicle>
    <vehicle id="car114.0" type="carType" depart="0.00" color="white">
        <route edges="-254759940#0 -419657503#1 -419657503#0 419657507#0 419657507#1 419657507#2 419657507#3 8918770#2"/>
    </vehicle>
    <vehicle id="car115.0" type="carType" depart="0.00" color="white">
        <route edges="-24444959#5 -254759910#3 -254759910#2 -254759910#1 -254759910#0 -254760012#5 -254760012#4"/>
    </vehicle>
    <vehicle id="car116.0" type="carType" depart="0.00" color="white">
        <route edges="254759910#2 254759910#3 24444959#5 24444959#6 24444959#7 24444959#8 24444959#9 24444959#10 1286659587 -27028861#8 -27028861#7 -27028861#6 -27028861#5 -27028861#4 -27028861#3 -27028861#2 -27028861#1 -27028861#0 27028828#0"/>
    </vehicle>
    <vehicle id="car117.0" type="carType" depart="0.00" color="white">
        <route edges="-27028861#3 -1286659590 -254759940#2 -254759940#1 -254759940#0 254759910#0 254759910#1 254759910#2 254759910#3 -24444959#4 -24547826#2"/>
    </vehicle>
    <vehicle id="car118.0" type="carType" depart="0.00" color="white">
        <route edges="483432848#5 483432848#6 -483432848#6 -483432848#5 24444959#7 24444959#8 24444959#9 24444959#10 1286659587 -27028861#8"/>
    </vehicle>
    <vehicle id="car119.0" type="carType" depart="0.00" color="white">
        <route edges="254759910#2 254759910#3 -254759910#3 -254759910#2 -254759910#1 -254759910#0 -254760012#5 -254760012#4 -254760012#3 -254760012#2 -254760012#1 -254760012#0 -254759941#1 -254759941#0 254759941#0 254759941#1"/>
    </vehicle>
    <vehicle id="car12.0" type="carType" depart="0.00" color="white">
        <route edges="8917786#4 8917786#5 -8917786#5 -8917786#4 -8917786#3 -8917786#2 -8917786#1 -8917786#0 -27028861#3 -27028861#2 -27028861#1 -27028861#0 -419657507#6"/>
    </vehicle>
    <vehicle id="car120.0" type="carType" depart="0.00" color="white">
        <route edges="-8918770#3 -8918770#2 -419657507#3 -419657507#2 -419657507#1 -419657507#0 419657503#0 419657503#1 254759910#0 254759910#1 254759910#2 254759910#3 254759910#4"/>
    </vehicle>
    <vehicle id="car121.0" type="carType" depart="0.00" color="white">
        <route edges="24444954#0 24444954#1 24444954#2 8917043#0 8917043#1 8917043#2 8917043#3 8917043#4 8917043#5 8917043#6 8917043#7 8917043#8 8917043#9"/>
    </vehicle>
    <vehicle id="car122.0" type="carType" depart="0.00" color="white">
        <route edges="-27028821#0 27028821#0 27028821#1 27028821#2 391862870#0 391862870#1 391862870#2 391862870#3 391862870#4 391862870#5 419657507#0 419657507#1 419657507#2 419657507#3 419657507#4 419657507#5 419657507#6 27028861#0 27028861#1 27028861#2 27028861#3 27028861#4 27028861#5 27028861#6 27028861#7 27028861#8 27028861#9"/>
    </vehicle>
    <vehicle id="car123.0" type="carType" depart="0.00" color="white">
        <route edges="-27028861#4 8917786#0 8917786#1 8917786#2 8917786#3 -8917786#3 -8917786#2"/>
    </vehicle>
    <vehicle id="car124.0" type="carType" depart="0.00" color="white">
        <route edges="27028821#0 27028821#1 27028821#2 391862870#0 391862870#1 391862870#2 391862870#3 391862870#4 391862870#5 -419633758#2"/>
    </vehicle>
    <vehicle id="car125.0" type="carType" depart="0.00" color="white">
        <route edges="-419657503#1 -419657503#0 -391862870#5 -391862870#4 -391862870#3 -391862870#2 -391862870#1 -391862870#0 -27028821#2 -27028821#1 -27028821#0 -397130841#2 -397130841#1 -397130841#0 -397130840 -24138763#1 -24138763#0 397125842#0 397125842#1 397125836#0 397125836#1"/>
    </vehicle>
    <vehicle id="car126.0" type="carType" depart="0.00" color="white">
        <route edges="-24444959#2 -24444959#1 -24444959#0 24444959#0 24444959#1 24444959#2 24444959#3 24444959#4 -254759910#3 -254759910#2 -254759910#1 -254759910#0 -419657503#1 -419657503#0 419657507#0 419657507#1 419657507#2 419657507#3 419657507#4 419657507#5 419657507#6 -1034377069#1 -1034377069#0 -419633760#1 -419633760#0 419633760#0 419633760#1 1034377069#0 1034377069#1"/>
    </vehicle>
    <vehicle id="car127.0" type="carType" depart="0.00" color="white">
        <route edges="970578569#3"/>
    </vehicle>
    <vehicle id="car128.0" type="carType" depart="0.00" color="white">
        <route edges="-24444959#3 24444959#3 24444959#4 -254759910#3 -254759910#2 -254759910#1 -254759910#0 -419657503#1 -419657503#0 419657507#0 419657507#1 419657507#2 419657507#3 419657507#4 419657507#5 419657507#6 27028828#0 27028828#1 27028828#2 -27028828#2 -27028828#1"/>
    </vehicle>
    <vehicle id="car129.0" type="carType" depart="0.00" color="white">
        <route edges="-391862870#2 -391862870#1 24547816 254759931#0 254759931#1 254759931#2 -24444959#2 -24444959#1 8917043#4 8917043#5 8917043#6 8917043#7 8917043#8"/>
    </vehicle>
    <vehicle id="car13.0" type="carType" depart="0.00" color="white">
        <route edges="-24444959#9 -24444959#8"/>
    </vehicle>
    <vehicle id="car130.0" type="carType" depart="0.00" color="white">
        <route edges="483432848#3 483432848#4 483432848#5 483432848#6"/>
    </vehicle>
    <vehicle id="car131.0" type="carType" depart="0.00" color="white">
        <route edges="-488985772#0 488985772#0 488985772#1 488985772#2 488985772#3 488985772#4 -483432848#1 -254759940#0"/>
    </vehicle>
    <vehicle id="car132.0" type="carType" depart="0.00" color="white">
        <route edges="419633760#1 1034377069#0 1034377069#1 27028861#0 27028861#1 27028861#2 27028861#3 27028861#4 27028861#5"/>
    </vehicle>
    <vehicle id="car133.0" type="carType" depart="0.00" color="white">
        <route edges="254759931#0 488985772#2 488985772#3 488985772#4 488985772#5 488985772#6 1286659589 27028861#6 27028861#7 1286659588 970578569#0 970578569#1"/>
    </vehicle>
    <vehicle id="car134.0" type="carType" depart="0.00" color="white">
        <route edges="254760012#5 -419657503#1 -419657503#0 -391862870#5 -391862870#4 -391862870#3 -391862870#2 -391862870#1 -391862870#0 -27028821#2 -27028821#1 -27028821#0 110797422#0 110797422#1 110797422#2 397130497#0 397130497#1 397130497#2 -397130497#2 -397130497#1 -397130497#0 -110797422#2 -110797422#1 -110797422#0"/>
    </vehicle>
    <vehicle id="car135.0" type="carType" depart="0.00" color="white">
        <route edges="417392979#1 397125840#0 397125840#1 24138763#0 24138763#1 397130840 397130841#0 397130841#1 397130841#2 27028821#0 27028821#1 27028821#2 391862870#0 391862870#1 391862870#2 391862870#3 391862870#4 391862870#5 -419633758#2"/>
    </vehicle>
    <vehicle id="car136.0" type="carType" depart="0.00" color="white">
        <route edges="259499935#0 259499935#1 259499935#2 -259499935#2 -259499935#1 -259499935#0 -27028828#2 -27028828#1 -27028828#0 27028861#0 27028861#1 27028861#2 27028861#3 8917786#0"/>
    </vehicle>
    <vehicle id="car137.0" type="carType" depart="0.00" color="white">
        <route edges="-254759910#5 -254759910#4 -254759910#3 -254759910#2 -254759910#1 -488985772#3 -24547826#0"/>
    </vehicle>
    <vehicle id="car138.0" type="carType" depart="0.00" color="white">
        <route edges="-24547826#1 488985772#3 -254759910#0 -419657503#1 -419657503#0 -391862870#5 -391862870#4 -391862870#3 -391862870#2 -391862870#1 24547816"/>
    </vehicle>
    <vehicle id="car139.0" type="carType" depart="0.00" color="white">
        <route edges="-391862870#4 -391862870#3 -391862870#2 -391862870#1 24547816 254759931#0 254759931#1 254759931#2"/>
    </vehicle>
    <vehicle id="car14.0" type="carType" depart="0.00" color="white">
        <route edges="419657507#1 -419657507#1 -419657507#0 -391862870#5 -391862870#4 -391862870#3 -391862870#2 -391862870#1 24547816 254759931#0 254759931#1 254759931#2"/>
    </vehicle>
    <vehicle id="car140.0" type="carType" depart="0.00" color="white">
        <route edges="27028861#8 -27028861#8 -27028861#7 -27028861#6 -27028861#5 -27028861#4 -27028861#3 -27028861#2 -27028861#1 -27028861#0 -419657507#6 -419657507#5 -419657507#4 -419657507#3 -419657507#2 -419657507#1 -419657507#0 -391862870#5 -391862870#4 -391862870#3 -391862870#2 -391862870#1 -391862870#0 -27028821#2 -27028821#1"/>
    </vehicle>
    <vehicle id="car141.0" type="carType" depart="0.00" color="white">
        <route edges="254759941#1 254760012#0 254760012#1 254760012#2 254760012#3 254760012#4 254760012#5 -419657503#1 -419657503#0 -391862870#5 -391862870#4 -391862870#3"/>
    </vehicle>
    <vehicle id="car142.0" type="carType" depart="0.00" color="white">
        <route edges="1286659589 -1286659589 -488985772#6 -488985772#5 -488985772#4 -488985772#3 -488985772#2 -488985772#1 -488985772#0 8917043#0"/>
    </vehicle>
    <vehicle id="car143.0" type="carType" depart="0.00" color="white">
        <route edges="419657507#1 483432848#0 483432848#1 483432848#2 483432848#3 483432848#4 -24444959#6"/>
    </vehicle>
    <vehicle id="car144.0" type="carType" depart="0.00" color="white">
        <route edges="-8918770#4 -8918770#3 -8918770#2 -419657507#3 -419657507#2 -419657507#1 -419657507#0 -391862870#5 -391862870#4 -391862870#3 -391862870#2 -391862870#1 -391862870#0 -27028821#2 -27028821#1 -27028821#0 110797422#0 110797422#1 110797422#2 397130497#0 397130497#1 397130497#2 -397130497#2 -397130497#1"/>
    </vehicle>
    <vehicle id="car145.0" type="carType" depart="0.00" color="white">
        <route edges="-1034377069#1 -1034377069#0 -419633760#1 -419633760#0 419633760#0 419633760#1 1034377069#0 1034377069#1 -419657507#6 -419657507#5 -419657507#4 -419657507#3 -419657507#2 -419657507#1 -419657507#0 419657503#0 419657503#1 254759910#0 254759910#1 254759910#2 254759910#3 -24444959#4 -24444959#3 -24444959#2 -24444959#1 -24444959#0 397125839#0 397125839#1 397125839#2"/>
    </vehicle>
    <vehicle id="car146.0" type="carType" depart="0.00" color="white">
        <route edges="254760012#0 254760012#1 254760012#2 254760012#3 254760012#4 254760012#5 -419657503#1 -419657503#0 -391862870#5 -391862870#4 -391862870#3"/>
    </vehicle>
    <vehicle id="car147.0" type="carType" depart="0.00" color="white">
        <route edges="391862870#5 -391862870#5 -391862870#4 -391862870#3 -391862870#2 -391862870#1 -391862870#0 -24547815#1 -24547815#0 24547815#0 24547815#1"/>
    </vehicle>
    <vehicle id="car148.0" type="carType" depart="0.00" color="white">
        <route edges="-8918770#6 -8918770#5 -8918770#4 -8918770#3 -8918770#2 -419657507#3 -419657507#2 -419657507#1 -419657507#0 -391862870#5 -391862870#4 -391862870#3 -391862870#2 -391862870#1 -391862870#0 -27028821#2 -27028821#1 -27028821#0 110797422#0 110797422#1 110797422#2 397130497#0 397130497#1 397130497#2 -397130497#2 -397130497#1 -397130497#0 -110797422#2 -110797422#1 -110797422#0"/>
    </vehicle>
    <vehicle id="car149.0" type="carType" depart="0.00" color="white">
        <route edges="-24444959#3 -24444959#2 -24444959#1 -24444959#0 397125839#0 397125839#1 397125839#2 397125835#0 397125835#1 24444954#2 488985772#0"/>
    </vehicle>
    <vehicle id="car15.0" type="carType" depart="0.00" color="white">
        <route edges="397130841#1 397130841#2 27028821#0 27028821#1 27028821#2 391862870#0 391862870#1 391862870#2 391862870#3"/>
    </vehicle>
    <vehicle id="car16.0" type="carType" depart="0.00" color="white">
        <route edges="24444959#1 24444959#2 24444959#3 24444959#4 -254759910#3 -254759910#2 -254759910#1 -254759910#0 -419657503#1 -419657503#0 419657507#0 419657507#1 419657507#2 419657507#3 8918770#2 8918770#3 8918770#4 8918770#5"/>
    </vehicle>
    <vehicle id="car17.0" type="carType" depart="0.00" color="white">
        <route edges="-488985772#3 -488985772#2 -254759931#0 -24547816 -391862870#0 -24547815#1 -24547815#0 24547815#0 24547815#1"/>
    </vehicle>
    <vehicle id="car18.0" type="carType" depart="0.00" color="white">
        <route edges="419633760#0 419633760#1 1034377069#0 1034377069#1 -419657507#6 -419657507#5 -419657507#4 8918770#2 8918770#3 8918770#4 8918770#5 254759940#2"/>
    </vehicle>
    <vehicle id="car19.0" type="carType" depart="0.00" color="white">
        <route edges="419657507#6 -419657507#6 -419657507#5 -419657507#4 -419657507#3 -419657507#2 -419657507#1 -419657507#0 419657503#0 419657503#1 254759910#0 254759910#1 254759910#2"/>
    </vehicle>
    <vehicle id="car2.0" type="carType" depart="0.00" color="white">
        <route edges="391862870#4 391862870#5 419657507#0 419657507#1 419657507#2 419657507#3 419657507#4 419657507#5 419657507#6 27028828#0 27028828#1"/>
    </vehicle>
    <vehicle id="car20.0" type="carType" depart="0.00" color="white">
        <route edges="27028861#4 27028861#5 -27028861#5 -27028861#4 -27028861#3 -27028861#2 -27028861#1 -27028861#0 -419657507#6 -419657507#5 -419657507#4 -419657507#3 -419657507#2 -419657507#1 -419657507#0 -391862870#5 -391862870#4 -391862870#3 -391862870#2 -391862870#1 -391862870#0 -27028821#2 -27028821#1 -27028821#0 -162324928#5 -162324928#4"/>
    </vehicle>
    <vehicle id="car21.0" type="carType" depart="0.00" color="white">
        <route edges="-27028861#1 -27028861#0 -419657507#6 -419657507#5 -419657507#4 -419657507#3 -419657507#2 -419657507#1 -419657507#0 -391862870#5 -391862870#4 -391862870#3 -391862870#2 -391862870#1 -391862870#0 -27028821#2 -27028821#1 -27028821#0 -397130841#2"/>
    </vehicle>
    <vehicle id="car22.0" type="carType" depart="0.00" color="white">
        <route edges="-24444959#5 -254759910#3 -254759910#2 -254759910#1 488985772#4 488985772#5 488985772#6 1286659589 -27028861#5 -27028861#4"/>
    </vehicle>
    <vehicle id="car23.0" type="carType" depart="0.00" color="white">
        <route edges="-24547816 -391862870#0 -27028821#2 -27028821#1 -27028821#0 110797422#0 110797422#1 110797422#2 397130497#0 397130497#1 397130497#2 -397130497#2 -397130497#1"/>
    </vehicle>
    <vehicle id="car24.0" type="carType" depart="0.00" color="white">
        <route edges="254759941#1 254760012#0 254760012#1 254759931#0 -488985772#1 -488985772#0"/>
    </vehicle>
    <vehicle id="car25.0" type="carType" depart="0.00" color="white">
        <route edges="-488985772#0 488985772#0 488985772#1 488985772#2 488985772#3 -254759910#0 -419657503#1 -419657503#0 419657507#0 419657507#1 419657507#2 419657507#3 419657507#4 419657507#5 419657507#6 27028828#0 27028828#1 27028828#2 -27028828#2 -27028828#1 -27028828#0"/>
    </vehicle>
    <vehicle id="car26.0" type="carType" depart="0.00" color="white">
        <route edges="-391862870#2 -391862870#1 24547816 254759931#0 254759931#1 254759931#2 -24444959#2 -24444959#1 8917043#4 8917043#5 8917043#6 8917043#7 8917043#8 8917043#9"/>
    </vehicle>
    <vehicle id="car27.0" type="carType" depart="0.00" color="white">
        <route edges="254760012#3 24547826#0 -488985772#2 254759931#1 254759931#2 254759931#3"/>
    </vehicle>
    <vehicle id="car28.0" type="carType" depart="0.00" color="white">
        <route edges="-254760012#0 24138763#0 24138763#1 397130840 397130841#0 397130841#1 397130841#2 27028821#0 27028821#1 27028821#2 391862870#0 391862870#1 391862870#2 391862870#3"/>
    </vehicle>
    <vehicle id="car29.0" type="carType" depart="0.00" color="white">
        <route edges="-254759940#2 -254759940#1 483432848#1 -488985772#4"/>
    </vehicle>
    <vehicle id="car3.0" type="carType" depart="0.00" color="white">
        <route edges="488985772#0 488985772#1 488985772#2 488985772#3 254759910#1 254759910#2 254759910#3 24444959#5 24444959#6 -24444959#6 -24444959#5"/>
    </vehicle>
    <vehicle id="car30.0" type="carType" depart="0.00" color="white">
        <route edges="970578569#0 -970578569#0 -1286659588 -27028861#7 -27028861#6 -1286659589 -488985772#6 -488985772#5 -488985772#4 -488985772#3 -24547826#0 254760012#4 254760012#5"/>
    </vehicle>
    <vehicle id="car31.0" type="carType" depart="0.00" color="white">
        <route edges="24444959#7 24444959#8 24444959#9 24444959#10 1286659587 -27028861#8 -27028861#7 -27028861#6 -27028861#5 -27028861#4 -27028861#3 -27028861#2 -27028861#1 -27028861#0 27028861#0"/>
    </vehicle>
    <vehicle id="car32.0" type="carType" depart="0.00" color="white">
        <route edges="419657507#0 419657507#1 -419657507#1 -419657507#0 419657503#0 419657503#1 254759910#0 -488985772#3 -488985772#2 -488985772#1 -488985772#0 -24444954#2 417392979#0 417392979#1 397125840#0 397125840#1"/>
    </vehicle>
    <vehicle id="car33.0" type="carType" depart="0.00" color="white">
        <route edges="-27028861#10 -27028861#9 -27028861#8 -27028861#7 -27028861#6 -27028861#5 -27028861#4 -27028861#3 -27028861#2 -27028861#1 -27028861#0 -419657507#6 -419657507#5 -419657507#4 -419657507#3 -419657507#2 -419657507#1 -419657507#0 -391862870#5 -391862870#4 -391862870#3 -391862870#2 -391862870#1 -391862870#0 -27028821#2 -27028821#1 -27028821#0 -162324928#5 -162324928#4 -162324928#3 -162324928#2 -162324928#1 -162324928#0"/>
    </vehicle>
    <vehicle id="car34.0" type="carType" depart="0.00" color="white">
        <route edges="-419657503#1 -419657503#0 -391862870#5 -391862870#4"/>
    </vehicle>
    <vehicle id="car35.0" type="carType" depart="0.00" color="white">
        <route edges="-27028821#2 -27028821#1 -27028821#0 27028821#0 27028821#1 27028821#2 391862870#0 391862870#1 391862870#2 391862870#3 391862870#4 391862870#5 419657507#0 419657507#1 419657507#2 419657507#3 419657507#4 419657507#5 419657507#6 27028861#0 27028861#1 27028861#2 27028861#3 8917786#0 8917786#1"/>
    </vehicle>
    <vehicle id="car36.0" type="carType" depart="0.00" color="white">
        <route edges="483432848#1 -483432848#1 -483432848#0 -419657507#1 -419657507#0"/>
    </vehicle>
    <vehicle id="car37.0" type="carType" depart="0.00" color="white">
        <route edges="254760012#5 254759940#0 254759940#1 254759940#2 1286659590 27028861#3 8917786#0 8917786#1 8917786#2 8917786#3 -8917786#3 -8917786#2"/>
    </vehicle>
    <vehicle id="car38.0" type="carType" depart="0.00" color="white">
        <route edges="8917043#0 8917043#1 8917043#2 8917043#3 24444959#1 24444959#2 24444959#3 24444959#4 -254759910#3 -254759910#2 -254759910#1 -254759910#0 -419657503#1 -419657503#0 419657507#0 419657507#1 419657507#2 419657507#3 419657507#4 419657507#5 419657507#6 -1034377069#1 -1034377069#0 -419633760#1 -419633760#0 419633760#0 419633760#1 1034377069#0 1034377069#1"/>
    </vehicle>
    <vehicle id="car39.0" type="carType" depart="0.00" color="white">
        <route edges="-391862870#1 24547816 254760012#2 254760012#3 254760012#4 254760012#5 254759910#0 254759910#1 254759910#2 254759910#3 24444959#5 24444959#6 24444959#7 24444959#8 24444959#9 24444959#10 1286659587 -27028861#8"/>
    </vehicle>
    <vehicle id="car4.0" type="carType" depart="0.00" color="white">
        <route edges="-8918770#4 -8918770#3 -8918770#2 419657507#4 419657507#5 419657507#6 27028861#0 27028861#1 27028861#2 -1286659590"/>
    </vehicle>
    <vehicle id="car40.0" type="carType" depart="0.00" color="white">
        <route edges="24444959#8 24444959#9 24444959#10 1286659587 -27028861#8 -27028861#7 -27028861#6 -27028861#5 -27028861#4 -27028861#3 -27028861#2 -27028861#1 -27028861#0 -419657507#6 -419657507#5 -419657507#4 -419657507#3 -419657507#2 -419657507#1 -419657507#0 -391862870#5 -391862870#4 -391862870#3"/>
    </vehicle>
    <vehicle id="car41.0" type="carType" depart="0.00" color="white">
        <route edges="24547826#2 24444959#4 -254759910#3 -254759910#2 -254759910#1 488985772#4 488985772#5"/>
    </vehicle>
    <vehicle id="car42.0" type="carType" depart="0.00" color="white">
        <route edges="-8917786#2 -8917786#1 -8917786#0 -27028861#3 -27028861#2 -27028861#1 -27028861#0"/>
    </vehicle>
    <vehicle id="car43.0" type="carType" depart="0.00" color="white">
        <route edges="970578569#3 970578569#4 -970578569#4 -970578569#3 -970578569#2 -970578569#1 -970578569#0 -1286659588 -27028861#7 -27028861#6 -1286659589 -488985772#6 -488985772#5 -488985772#4 -488985772#3 -488985772#2 -488985772#1 -488985772#0 -24444954#2 -24444954#1 -24444954#0 24444954#0 24444954#1"/>
    </vehicle>
    <vehicle id="car44.0" type="carType" depart="0.00" color="white">
        <route edges="-24444959#8 -24444959#7 -24444959#6 -24444959#5 -254759910#3 -254759910#2 -254759910#1 -254759910#0 -419657503#1 -419657503#0 -391862870#5 -391862870#4 -391862870#3 -391862870#2 -391862870#1 -391862870#0 -27028821#2 -27028821#1 -27028821#0 -162324928#5"/>
    </vehicle>
    <vehicle id="car45.0" type="carType" depart="0.00" color="white">
        <route edges="-24547826#2 -24547826#1 -488985772#2 -254759931#0 -254760012#1 -254760012#0 254760012#0 254760012#1"/>
    </vehicle>
    <vehicle id="car46.0" type="carType" depart="0.00" color="white">
        <route edges="397130497#0 397130497#1 397130497#2 -397130497#2 -397130497#1 -397130497#0 -110797422#2 -110797422#1 -110797422#0 27028821#0 27028821#1 27028821#2 391862870#0 391862870#1 391862870#2 391862870#3 391862870#4 391862870#5 419657503#0 419657503#1 254759940#0 254759940#1 -8918770#5"/>
    </vehicle>
    <vehicle id="car47.0" type="carType" depart="0.00" color="white">
        <route edges="-24444959#1 -24444959#0 24444959#0 24444959#1 24444959#2 24444959#3 24444959#4 24444959#5 24444959#6 24444959#7 24444959#8 24444959#9 -8918770#7 -488985772#5"/>
    </vehicle>
    <vehicle id="car48.0" type="carType" depart="0.00" color="white">
        <route edges="970578569#2 970578569#3 970578569#4 -970578569#4 -970578569#3 -970578569#2 -970578569#1 -970578569#0 -1286659588 27028861#8 -1286659587 -24444959#10 -24444959#9 -24444959#8 -24444959#7 -24444959#6 -24444959#5 -24444959#4 -24444959#3 24444959#3"/>
    </vehicle>
    <vehicle id="car49.0" type="carType" depart="0.00" color="white">
        <route edges="8918770#3 8918770#4 8918770#5 -8918770#5 -8918770#4 -8918770#3 -8918770#2 -419657507#3 -419657507#2 483432848#0"/>
    </vehicle>
    <vehicle id="car5.0" type="carType" depart="0.00" color="white">
        <route edges="-27028828#2 -27028828#1 -27028828#0 -419657507#6 -419657507#5 -419657507#4 -419657507#3 -419657507#2 -419657507#1 -419657507#0 -391862870#5 -391862870#4 -391862870#3 -391862870#2 -391862870#1 -391862870#0 -27028821#2 -27028821#1 -27028821#0 -397130841#2 -397130841#1 -397130841#0 -397130840 -24138763#1 -24138763#0 24138763#0 24138763#1"/>
    </vehicle>
    <vehicle id="car50.0" type="carType" depart="0.00" color="white">
        <route edges="-110797422#1 -110797422#0 27028821#0 27028821#1 27028821#2 391862870#0"/>
    </vehicle>
    <vehicle id="car51.0" type="carType" depart="0.00" color="white">
        <route edges="27028828#0 27028828#1 27028828#2 -27028828#2 -27028828#1 -27028828#0 -419657507#6 -419657507#5 -419657507#4 -419657507#3 -419657507#2 -419657507#1 -419657507#0 419657503#0 419657503#1 254759910#0 254759910#1 254759910#2 254759910#3 24444959#5 24444959#6"/>
    </vehicle>
    <vehicle id="car52.0" type="carType" depart="0.00" color="white">
        <route edges="-391862870#2 -391862870#1 24547816 254760012#2 254760012#3 254760012#4 254760012#5"/>
    </vehicle>
    <vehicle id="car53.0" type="carType" depart="0.00" color="white">
        <route edges="-24547826#2 -24547826#1 488985772#3 488985772#4 488985772#5 488985772#6 1286659589 27028861#6 27028861#7 1286659588 970578569#0 970578569#1 970578569#2 970578569#3 970578569#4 -970578569#4 -970578569#3 -970578569#2 -970578569#1"/>
    </vehicle>
    <vehicle id="car54.0" type="carType" depart="0.00" color="white">
        <route edges="1034377068#0 1034377068#1 1034377068#2 1034377069#0 1034377069#1 27028861#0 27028861#1 27028861#2 27028861#3 8917786#0 8917786#1 8917786#2 8917786#3 8917786#4 8917786#5"/>
    </vehicle>
    <vehicle id="car55.0" type="carType" depart="0.00" color="white">