<vType id="carType" vClass="passenger" minSpeed="10" maxSpeed="20"/>
