<?xml version="1.0" encoding="UTF-8"?>

<!-- generated on 2025-06-18 12:30:20.470262 by randomTrips.py UNKNOWN
<configuration>
    <net-file value="map.net.xml"/>
    <output-trip-file value="car_trips.xml"/>
    <route-file value="car_routes.rou.xml"/>
    <vtype-output value="car_vtypes.xml"/>
    <trip-attributes value="type=&quot;carType&quot; color=&quot;255,255,255&quot;"/>
    <end value="1200.0"/>
    <flows value="150"/>
</configuration>
-->

<routes xmlns:xsi="http://www.w3.org/2001/XMLSchema-instance" xsi:noNamespaceSchemaLocation="http://sumo.dlr.de/xsd/routes_file.xsd">
    <flow id="0" begin="0" end="1200" period="150" from="254760012#1" to="-1286659589" type="carType" color="255,255,255"/>
    <flow id="1" begin="0" end="1200" period="150" from="-391862870#5" to="-27028861#1" type="carType" color="255,255,255"/>
    <flow id="2" begin="0" end="1200" period="150" from="391862870#4" to="27028828#1" type="carType" color="255,255,255"/>
    <flow id="3" begin="0" end="1200" period="150" from="488985772#0" to="-24444959#5" type="carType" color="255,255,255"/>
    <flow id="4" begin="0" end="1200" period="150" from="-8918770#4" to="-1286659590" type="carType" color="255,255,255"/>
    <flow id="5" begin="0" end="1200" period="150" from="-27028828#2" to="24138763#1" type="carType" color="255,255,255"/>
    <flow id="6" begin="0" end="1200" period="150" from="-1286659590" to="-27028821#0" type="carType" color="255,255,255"/>
    <flow id="7" begin="0" end="1200" period="150" from="254760012#4" to="24444959#8" type="carType" color="255,255,255"/>
    <flow id="8" begin="0" end="1200" period="150" from="-27028828#2" to="254759910#5" type="carType" color="255,255,255"/>
    <flow id="9" begin="0" end="1200" period="150" from="397130841#2" to="-1034377069#1" type="carType" color="255,255,255"/>
    <flow id="10" begin="0" end="1200" period="150" from="397130841#1" to="27028861#3" type="carType" color="255,255,255"/>
    <flow id="11" begin="0" end="1200" period="150" from="-419657507#6" to="-254759931#2" type="carType" color="255,255,255"/>
    <flow id="12" begin="0" end="1200" period="150" from="8917786#4" to="-419657507#6" type="carType" color="255,255,255"/>
    <flow id="13" begin="0" end="1200" period="150" from="-24444959#9" to="-24444959#8" type="carType" color="255,255,255"/>
    <flow id="14" begin="0" end="1200" period="150" from="419657507#1" to="254759931#2" type="carType" color="255,255,255"/>
    <flow id="15" begin="0" end="1200" period="150" from="397130841#1" to="391862870#3" type="carType" color="255,255,255"/>
    <flow id="16" begin="0" end="1200" period="150" from="24444959#1" to="8918770#5" type="carType" color="255,255,255"/>
    <flow id="17" begin="0" end="1200" period="150" from="-488985772#3" to="24547815#1" type="carType" color="255,255,255"/>
    <flow id="18" begin="0" end="1200" period="150" from="419633760#0" to="254759940#2" type="carType" color="255,255,255"/>
    <flow id="19" begin="0" end="1200" period="150" from="419657507#6" to="254759910#2" type="carType" color="255,255,255"/>
    <flow id="20" begin="0" end="1200" period="150" from="27028861#4" to="-162324928#4" type="carType" color="255,255,255"/>
    <flow id="21" begin="0" end="1200" period="150" from="-27028861#1" to="-397130841#2" type="carType" color="255,255,255"/>
    <flow id="22" begin="0" end="1200" period="150" from="-24444959#5" to="-27028861#4" type="carType" color="255,255,255"/>
    <flow id="23" begin="0" end="1200" period="150" from="-24547816" to="-397130497#1" type="carType" color="255,255,255"/>
    <flow id="24" begin="0" end="1200" period="150" from="254759941#1" to="-488985772#0" type="carType" color="255,255,255"/>
    <flow id="25" begin="0" end="1200" period="150" from="-488985772#0" to="-27028828#0" type="carType" color="255,255,255"/>
    <flow id="26" begin="0" end="1200" period="150" from="-391862870#2" to="8917043#9" type="carType" color="255,255,255"/>
    <flow id="27" begin="0" end="1200" period="150" from="254760012#3" to="254759931#3" type="carType" color="255,255,255"/>
    <flow id="28" begin="0" end="1200" period="150" from="-254760012#0" to="391862870#3" type="carType" color="255,255,255"/>
    <flow id="29" begin="0" end="1200" period="150" from="-254759940#2" to="-488985772#4" type="carType" color="255,255,255"/>
    <flow id="30" begin="0" end="1200" period="150" from="970578569#0" to="254760012#5" type="carType" color="255,255,255"/>
    <flow id="31" begin="0" end="1200" period="150" from="24444959#7" to="27028861#0" type="carType" color="255,255,255"/>
    <flow id="32" begin="0" end="1200" period="150" from="419657507#0" to="397125840#1" type="carType" color="255,255,255"/>
    <flow id="33" begin="0" end="1200" period="150" from="-27028861#10" to="-162324928#0" type="carType" color="255,255,255"/>
    <flow id="34" begin="0" end="1200" period="150" from="-419657503#1" to="-391862870#4" type="carType" color="255,255,255"/>
    <flow id="35" begin="0" end="1200" period="150" from="-27028821#2" to="8917786#1" type="carType" color="255,255,255"/>
    <flow id="36" begin="0" end="1200" period="150" from="483432848#1" to="-419657507#0" type="carType" color="255,255,255"/>
    <flow id="37" begin="0" end="1200" period="150" from="254760012#5" to="-8917786#2" type="carType" color="255,255,255"/>
    <flow id="38" begin="0" end="1200" period="150" from="8917043#0" to="1034377069#1" type="carType" color="255,255,255"/>
    <flow id="39" begin="0" end="1200" period="150" from="-391862870#1" to="-27028861#8" type="carType" color="255,255,255"/>
    <flow id="40" begin="0" end="1200" period="150" from="24444959#8" to="-391862870#3" type="carType" color="255,255,255"/>
    <flow id="41" begin="0" end="1200" period="150" from="24547826#2" to="488985772#5" type="carType" color="255,255,255"/>
    <flow id="42" begin="0" end="1200" period="150" from="-8917786#2" to="-27028861#0" type="carType" color="255,255,255"/>
    <flow id="43" begin="0" end="1200" period="150" from="970578569#3" to="24444954#1" type="carType" color="255,255,255"/>
    <flow id="44" begin="0" end="1200" period="150" from="-24444959#8" to="-162324928#5" type="carType" color="255,255,255"/>
    <flow id="45" begin="0" end="1200" period="150" from="-24547826#2" to="254760012#1" type="carType" color="255,255,255"/>
    <flow id="46" begin="0" end="1200" period="150" from="397130497#0" to="-8918770#5" type="carType" color="255,255,255"/>
    <flow id="47" begin="0" end="1200" period="150" from="-24444959#1" to="-488985772#5" type="carType" color="255,255,255"/>
    <flow id="48" begin="0" end="1200" period="150" from="970578569#2" to="24444959#3" type="carType" color="255,255,255"/>
    <flow id="49" begin="0" end="1200" period="150" from="8918770#3" to="483432848#0" type="carType" color="255,255,255"/>
    <flow id="50" begin="0" end="1200" period="150" from="-110797422#1" to="391862870#0" type="carType" color="255,255,255"/>
    <flow id="51" begin="0" end="1200" period="150" from="27028828#0" to="24444959#6" type="carType" color="255,255,255"/>
    <flow id="52" begin="0" end="1200" period="150" from="-391862870#2" to="254760012#5" type="carType" color="255,255,255"/>
    <flow id="53" begin="0" end="1200" period="150" from="-24547826#2" to="-970578569#1" type="carType" color="255,255,255"/>
    <flow id="54" begin="0" end="1200" period="150" from="1034377068#0" to="8917786#5" type="carType" color="255,255,255"/>
    <flow id="55" begin="0" end="1200" period="150" from="483432848#1" to="-391862870#3" type="carType" color="255,255,255"/>
    <flow id="56" begin="0" end="1200" period="150" from="162324928#2" to="-254760012#1" type="carType" color="255,255,255"/>
    <flow id="57" begin="0" end="1200" period="150" from="488985772#6" to="483432848#3" type="carType" color="255,255,255"/>
    <flow id="58" begin="0" end="1200" period="150" from="-397130841#2" to="254760012#4" type="carType" color="255,255,255"/>
    <flow id="59" begin="0" end="1200" period="150" from="254759910#6" to="-254759931#2" type="carType" color="255,255,255"/>
    <flow id="60" begin="0" end="1200" period="150" from="397125838#0" to="24444959#6" type="carType" color="255,255,255"/>
    <flow id="61" begin="0" end="1200" period="150" from="397125840#0" to="24444959#4" type="carType" color="255,255,255"/>
    <flow id="62" begin="0" end="1200" period="150" from="-1034377069#0" to="-419657507#2" type="carType" color="255,255,255"/>
    <flow id="63" begin="0" end="1200" period="150" from="-1286659587" to="8917043#7" type="carType" color="255,255,255"/>
    <flow id="64" begin="0" end="1200" period="150" from="483432848#2" to="419657507#0" type="carType" color="255,255,255"/>
    <flow id="65" begin="0" end="1200" period="150" from="-419633758#2" to="-24444954#0" type="carType" color="255,255,255"/>
    <flow id="66" begin="0" end="1200" period="150" from="483432848#2" to="8917786#2" type="carType" color="255,255,255"/>
    <flow id="67" begin="0" end="1200" period="150" from="-24444959#6" to="162324928#1" type="carType" color="255,255,255"/>
    <flow id="68" begin="0" end="1200" period="150" from="-24444959#10" to="397125838#1" type="carType" color="255,255,255"/>
    <flow id="69" begin="0" end="1200" period="150" from="397125838#1" to="-254759910#1" type="carType" color="255,255,255"/>
    <flow id="70" begin="0" end="1200" period="150" from="110797422#1" to="24547815#1" type="carType" color="255,255,255"/>
    <flow id="71" begin="0" end="1200" period="150" from="-391862870#2" to="483432848#4" type="carType" color="255,255,255"/>
    <flow id="72" begin="0" end="1200" period="150" from="-8918770#4" to="-27028828#0" type="carType" color="255,255,255"/>
    <flow id="73" begin="0" end="1200" period="150" from="24444959#10" to="391862870#3" type="carType" color="255,255,255"/>
    <flow id="74" begin="0" end="1200" period="150" from="-259499935#2" to="-419657503#1" type="carType" color="255,255,255"/>
    <flow id="75" begin="0" end="1200" period="150" from="970578569#2" to="25821954#1" type="carType" color="255,255,255"/>
    <flow id="76" begin="0" end="1200" period="150" from="-970578569#0" to="24444959#1" type="carType" color="255,255,255"/>
    <flow id="77" begin="0" end="1200" period="150" from="-254759910#1" to="-27028861#1" type="carType" color="255,255,255"/>
    <flow id="78" begin="0" end="1200" period="150" from="-419657507#6" to="254759910#5" type="carType" color="255,255,255"/>
    <flow id="79" begin="0" end="1200" period="150" from="-27028861#10" to="-27028861#0" type="carType" color="255,255,255"/>
    <flow id="80" begin="0" end="1200" period="150" from="-24444959#2" to="254760012#2" type="carType" color="255,255,255"/>
    <flow id="81" begin="0" end="1200" period="150" from="-27028861#10" to="8917043#0" type="carType" color="255,255,255"/>
    <flow id="82" begin="0" end="1200" period="150" from="419657507#5" to="-24444959#1" type="carType" color="255,255,255"/>
    <flow id="83" begin="0" end="1200" period="150" from="-27028861#3" to="27028821#2" type="carType" color="255,255,255"/>
    <flow id="84" begin="0" end="1200" period="150" from="-27028828#0" to="-254759910#2" type="carType" color="255,255,255"/>
    <flow id="85" begin="0" end="1200" period="150" from="8917043#6" to="254759910#0" type="carType" color="255,255,255"/>
    <flow id="86" begin="0" end="1200" period="150" from="110797422#0" to="397125842#1" type="carType" color="255,255,255"/>
    <flow id="87" begin="0" end="1200" period="150" from="397130841#1" to="-254760012#5" type="carType" color="255,255,255"/>
    <flow id="88" begin="0" end="1200" period="150" from="-24547815#1" to="-970578569#0" type="carType" color="255,255,255"/>
    <flow id="89" begin="0" end="1200" period="150" from="-8918770#4" to="110797422#2" type="carType" color="255,255,255"/>
    <flow id="90" begin="0" end="1200" period="150" from="391862870#2" to="27028828#0" type="carType" color="255,255,255"/>
    <flow id="91" begin="0" end="1200" period="150" from="8918770#7" to="-24444959#8" type="carType" color="255,255,255"/>
    <flow id="92" begin="0" end="1200" period="150" from="-8917786#3" to="-483432845#0" type="carType" color="255,255,255"/>
    <flow id="93" begin="0" end="1200" period="150" from="419657507#6" to="-27028861#9" type="carType" color="255,255,255"/>
    <flow id="94" begin="0" end="1200" period="150" from="-25821953" to="1034377068#1" type="carType" color="255,255,255"/>
    <flow id="95" begin="0" end="1200" period="150" from="-8918770#4" to="-397130840" type="carType" color="255,255,255"/>
    <flow id="96" begin="0" end="1200" period="150" from="-27028861#7" to="8917043#5" type="carType" color="255,255,255"/>
    <flow id="97" begin="0" end="1200" period="150" from="-970578569#1" to="483432848#1" type="carType" color="255,255,255"/>
    <flow id="98" begin="0" end="1200" period="150" from="24444959#5" to="-24138763#0" type="carType" color="255,255,255"/>
    <flow id="99" begin="0" end="1200" period="150" from="970578569#3" to="419657507#1" type="carType" color="255,255,255"/>
    <flow id="100" begin="0" end="1200" period="150" from="8918770#2" to="8917043#6" type="carType" color="255,255,255"/>
    <flow id="101" begin="0" end="1200" period="150" from="419657507#2" to="-254759941#0" type="carType" color="255,255,255"/>
    <flow id="102" begin="0" end="1200" period="150" from="1286659588" to="-27028828#1" type="carType" color="255,255,255"/>
    <flow id="103" begin="0" end="1200" period="150" from="-8917786#3" to="-24444954#0" type="carType" color="255,255,255"/>
    <flow id="104" begin="0" end="1200" period="150" from="-488985772#3" to="970578569#0" type="carType" color="255,255,255"/>
    <flow id="105" begin="0" end="1200" period="150" from="-391862870#2" to="397125842#1" type="carType" color="255,255,255"/>
    <flow id="106" begin="0" end="1200" period="150" from="1034377068#0" to="-8918770#5" type="carType" color="255,255,255"/>
    <flow id="107" begin="0" end="1200" period="150" from="8917786#4" to="970578569#3" type="carType" color="255,255,255"/>
    <flow id="108" begin="0" end="1200" period="150" from="24444959#6" to="27028861#9" type="carType" color="255,255,255"/>
    <flow id="109" begin="0" end="1200" period="150" from="-254759931#3" to="-419633758#1" type="carType" color="255,255,255"/>
    <flow id="110" begin="0" end="1200" period="150" from="8918770#2" to="254759910#2" type="carType" color="255,255,255"/>
    <flow id="111" begin="0" end="1200" period="150" from="24444959#2" to="397125835#1" type="carType" color="255,255,255"/>
    <flow id="112" begin="0" end="1200" period="150" from="-24444954#2" to="254759910#4" type="carType" color="255,255,255"/>
    <flow id="113" begin="0" end="1200" period="150" from="162324928#2" to="419657507#6" type="carType" color="255,255,255"/>
    <flow id="114" begin="0" end="1200" period="150" from="-254759940#0" to="8918770#2" type="carType" color="255,255,255"/>
    <flow id="115" begin="0" end="1200" period="150" from="-24444959#5" to="-254760012#4" type="carType" color="255,255,255"/>
    <flow id="116" begin="0" end="1200" period="150" from="254759910#2" to="27028828#0" type="carType" color="255,255,255"/>
    <flow id="117" begin="0" end="1200" period="150" from="-27028861#3" to="-24547826#2" type="carType" color="255,255,255"/>
    <flow id="118" begin="0" end="1200" period="150" from="483432848#5" to="-27028861#8" type="carType" color="255,255,255"/>
    <flow id="119" begin="0" end="1200" period="150" from="254759910#2" to="254759941#1" type="carType" color="255,255,255"/>
    <flow id="120" begin="0" end="1200" period="150" from="-8918770#3" to="254759910#4" type="carType" color="255,255,255"/>
    <flow id="121" begin="0" end="1200" period="150" from="24444954#0" to="8917043#9" type="carType" color="255,255,255"/>
    <flow id="122" begin="0" end="1200" period="150" from="-27028821#0" to="27028861#9" type="carType" color="255,255,255"/>
    <flow id="123" begin="0" end="1200" period="150" from="-27028861#4" to="-8917786#2" type="carType" color="255,255,255"/>
    <flow id="124" begin="0" end="1200" period="150" from="27028821#0" to="-419633758#2" type="carType" color="255,255,255"/>
    <flow id="125" begin="0" end="1200" period="150" from="-419657503#1" to="397125836#1" type="carType" color="255,255,255"/>
    <flow id="126" begin="0" end="1200" period="150" from="-24444959#2" to="1034377069#1" type="carType" color="255,255,255"/>
    <flow id="127" begin="0" end="1200" period="150" from="970578569#3" to="970578569#3" type="carType" color="255,255,255"/>
    <flow id="128" begin="0" end="1200" period="150" from="-24444959#3" to="-27028828#1" type="carType" color="255,255,255"/>
    <flow id="129" begin="0" end="1200" period="150" from="-391862870#2" to="8917043#8" type="carType" color="255,255,255"/>
    <flow id="130" begin="0" end="1200" period="150" from="483432848#3" to="483432848#6" type="carType" color="255,255,255"/>
    <flow id="131" begin="0" end="1200" period="150" from="-488985772#0" to="-254759940#0" type="carType" color="255,255,255"/>
    <flow id="132" begin="0" end="1200" period="150" from="419633760#1" to="27028861#5" type="carType" color="255,255,255"/>
    <flow id="133" begin="0" end="1200" period="150" from="254759931#0" to="970578569#1" type="carType" color="255,255,255"/>
    <flow id="134" begin="0" end="1200" period="150" from="254760012#5" to="-110797422#0" type="carType" color="255,255,255"/>
    <flow id="135" begin="0" end="1200" period="150" from="417392979#1" to="-419633758#2" type="carType" color="255,255,255"/>
    <flow id="136" begin="0" end="1200" period="150" from="259499935#0" to="8917786#0" type="carType" color="255,255,255"/>
    <flow id="137" begin="0" end="1200" period="150" from="-254759910#5" to="-24547826#0" type="carType" color="255,255,255"/>
    <flow id="138" begin="0" end="1200" period="150" from="-24547826#1" to="24547816" type="carType" color="255,255,255"/>
    <flow id="139" begin="0" end="1200" period="150" from="-391862870#4" to="254759931#2" type="carType" color="255,255,255"/>
    <flow id="140" begin="0" end="1200" period="150" from="27028861#8" to="-27028821#1" type="carType" color="255,255,255"/>
    <flow id="141" begin="0" end="1200" period="150" from="254759941#1" to="-391862870#3" type="carType" color="255,255,255"/>
    <flow id="142" begin="0" end="1200" period="150" from="1286659589" to="8917043#0" type="carType" color="255,255,255"/>
    <flow id="143" begin="0" end="1200" period="150" from="419657507#1" to="-24444959#6" type="carType" color="255,255,255"/>
    <flow id="144" begin="0" end="1200" period="150" from="-8918770#4" to="-397130497#1" type="carType" color="255,255,255"/>
    <flow id="145" begin="0" end="1200" period="150" from="-1034377069#1" to="397125839#2" type="carType" color="255,255,255"/>
    <flow id="146" begin="0" end="1200" period="150" from="254760012#0" to="-391862870#3" type="carType" color="255,255,255"/>
    <flow id="147" begin="0" end="1200" period="150" from="391862870#5" to="24547815#1" type="carType" color="255,255,255"/>
    <flow id="148" begin="0" end="1200" period="150" from="-8918770#6" to="-110797422#0" type="carType" color="255,255,255"/>
    <flow id="149" begin="0" end="1200" period="150" from="-24444959#3" to="488985772#0" type="carType" color="255,255,255"/>
</routes>
