<?xml version="1.0" encoding="UTF-8"?>

<!-- generated on 2025-06-01 09:37:18 by Eclipse SUMO netconvert Version 1.23.1
<netconvertConfiguration xmlns:xsi="http://www.w3.org/2001/XMLSchema-instance" xsi:noNamespaceSchemaLocation="http://sumo.dlr.de/xsd/netconvertConfiguration.xsd">

    <input>
        <osm-files value="map.osm"/>
    </input>

    <output>
        <output-file value="map.net.xml"/>
    </output>

    <projection>
        <proj.utm value="true"/>
    </projection>

</netconvertConfiguration>
-->

<net version="1.20" junctionCornerDetail="5" limitTurnSpeed="5.50" xmlns:xsi="http://www.w3.org/2001/XMLSchema-instance" xsi:noNamespaceSchemaLocation="http://sumo.dlr.de/xsd/net_file.xsd">

    <location netOffset="-551462.34,-4178549.25" convBoundary="0.00,0.00,901.78,1423.55" origBoundary="-122.443381,37.752779,-122.398671,37.770501" projParameter="+proj=utm +zone=10 +ellps=WGS84 +datum=WGS84 +units=m +no_defs"/>

    <type id="highway.footway" priority="1" numLanes="1" speed="2.78" allow="pedestrian" oneway="1" width="2.00"/>
    <type id="highway.residential" priority="3" numLanes="1" speed="13.89" disallow="tram rail_urban rail rail_electric rail_fast ship container cable_car subway aircraft wheelchair scooter drone" oneway="0"/>
    <type id="highway.secondary" priority="11" numLanes="1" speed="27.78" disallow="tram rail_urban rail rail_electric rail_fast ship container cable_car subway aircraft wheelchair scooter drone" oneway="0"/>
    <type id="highway.service" priority="1" numLanes="1" speed="5.56" allow="pedestrian delivery bicycle" oneway="0"/>
    <type id="highway.steps" priority="1" numLanes="1" speed="1.39" allow="pedestrian" oneway="1" width="2.00"/>
    <type id="highway.tertiary" priority="10" numLanes="1" speed="22.22" disallow="tram rail_urban rail rail_electric rail_fast ship container cable_car subway aircraft wheelchair scooter drone" oneway="0"/>

    <edge id=":10656593756_0" function="internal">
        <lane id=":10656593756_0_0" index="0" disallow="tram rail_urban rail rail_electric rail_fast ship container cable_car subway aircraft wheelchair scooter drone" speed="13.89" length="5.00" shape="416.62,912.83 416.18,917.81"/>
    </edge>
    <edge id=":10656593756_1" function="internal">
        <lane id=":10656593756_1_0" index="0" disallow="tram rail_urban rail rail_electric rail_fast ship container cable_car subway aircraft wheelchair scooter drone" speed="13.89" length="4.99" shape="412.99,917.52 413.43,912.55"/>
    </edge>
    <edge id=":10656593757_0" function="internal">
        <lane id=":10656593757_0_0" index="0" disallow="tram rail_urban rail rail_electric rail_fast ship container cable_car subway aircraft wheelchair scooter drone" speed="22.22" length="5.01" shape="501.32,919.62 500.89,924.61"/>
    </edge>
    <edge id=":10656593757_1" function="internal">
        <lane id=":10656593757_1_0" index="0" disallow="tram rail_urban rail rail_electric rail_fast ship container cable_car subway aircraft wheelchair scooter drone" speed="22.22" length="5.00" shape="497.71,924.34 498.13,919.35"/>
    </edge>
    <edge id=":10718390145_0" function="internal">
        <lane id=":10718390145_0_0" index="0" disallow="tram rail_urban rail rail_electric rail_fast ship container cable_car subway aircraft wheelchair scooter drone" speed="22.22" length="0.30" shape="460.11,1413.78 460.09,1414.08"/>
    </edge>
    <edge id=":10718390145_1" function="internal">
        <lane id=":10718390145_1_0" index="0" disallow="tram rail_urban rail rail_electric rail_fast ship container cable_car subway aircraft wheelchair scooter drone" speed="22.22" length="0.30" shape="456.90,1413.81 456.93,1413.51"/>
    </edge>
    <edge id=":10741132988_0" function="internal">
        <lane id=":10741132988_0_0" index="0" disallow="tram rail_urban rail rail_electric rail_fast ship container cable_car subway aircraft wheelchair scooter drone" speed="11.18" length="0.33" shape="744.38,1169.06 744.35,1169.41"/>
        <lane id=":10741132988_0_1" index="1" disallow="tram rail_urban rail rail_electric rail_fast ship container cable_car subway aircraft wheelchair scooter drone" speed="11.18" length="0.33" shape="741.19,1168.82 741.17,1169.14"/>
    </edge>
    <edge id=":10741132988_2" function="internal">
        <lane id=":10741132988_2_0" index="0" disallow="tram rail_urban rail rail_electric rail_fast ship container cable_car subway aircraft wheelchair scooter drone" speed="11.18" length="0.27" shape="731.60,1168.34 731.62,1168.10"/>
        <lane id=":10741132988_2_1" index="1" disallow="tram rail_urban rail rail_electric rail_fast ship container cable_car subway aircraft wheelchair scooter drone" speed="11.18" length="0.27" shape="734.79,1168.61 734.81,1168.34"/>
        <lane id=":10741132988_2_2" index="2" disallow="tram rail_urban rail rail_electric rail_fast ship container cable_car subway aircraft wheelchair scooter drone" speed="11.18" length="0.27" shape="737.98,1168.87 738.00,1168.58"/>
    </edge>
    <edge id=":10741132989_0" function="internal">
        <lane id=":10741132989_0_0" index="0" disallow="tram rail_urban rail rail_electric rail_fast ship container cable_car subway aircraft wheelchair scooter drone" speed="13.89" length="0.29" shape="753.25,1162.70 752.96,1162.68"/>
    </edge>
    <edge id=":10741132989_1" function="internal">
        <lane id=":10741132989_1_0" index="0" disallow="tram rail_urban rail rail_electric rail_fast ship container cable_car subway aircraft wheelchair scooter drone" speed="13.89" length="0.31" shape="753.21,1159.49 753.52,1159.51"/>
    </edge>
    <edge id=":10741154064_0" function="internal">
        <lane id=":10741154064_0_0" index="0" disallow="tram rail_urban rail rail_electric rail_fast ship container cable_car subway aircraft wheelchair scooter drone" speed="22.22" length="0.30" shape="479.80,1281.94 479.50,1281.91"/>
    </edge>
    <edge id=":10741154064_1" function="internal">
        <lane id=":10741154064_1_0" index="0" disallow="tram rail_urban rail rail_electric rail_fast ship container cable_car subway aircraft wheelchair scooter drone" speed="22.22" length="0.30" shape="479.76,1278.72 480.07,1278.75"/>
    </edge>
    <edge id=":10741532316_0" function="internal">
        <lane id=":10741532316_0_0" index="0" disallow="tram rail_urban rail rail_electric rail_fast ship container cable_car subway aircraft wheelchair scooter drone" speed="13.89" length="0.29" shape="806.06,1308.81 805.77,1308.78"/>
    </edge>
    <edge id=":10741532316_1" function="internal">
        <lane id=":10741532316_1_0" index="0" disallow="tram rail_urban rail rail_electric rail_fast ship container cable_car subway aircraft wheelchair scooter drone" speed="13.89" length="0.31" shape="806.03,1305.59 806.33,1305.62"/>
    </edge>
    <edge id=":11024081042_0" function="internal">
        <lane id=":11024081042_0_0" index="0" allow="pedestrian delivery bicycle" speed="5.56" length="0.23" shape="648.20,1354.28 647.97,1354.27"/>
    </edge>
    <edge id=":11024081042_1" function="internal">
        <lane id=":11024081042_1_0" index="0" allow="pedestrian delivery bicycle" speed="5.56" length="0.31" shape="648.21,1351.07 648.52,1351.10"/>
    </edge>
    <edge id=":11556204975_0" function="internal">
        <lane id=":11556204975_0_0" index="0" disallow="tram rail_urban rail rail_electric rail_fast ship container cable_car subway aircraft wheelchair scooter drone" speed="11.18" length="0.31" shape="732.63,1311.37 732.60,1311.68"/>
        <lane id=":11556204975_0_1" index="1" disallow="tram rail_urban rail rail_electric rail_fast ship container cable_car subway aircraft wheelchair scooter drone" speed="11.18" length="0.31" shape="729.44,1311.11 729.41,1311.42"/>
    </edge>
    <edge id=":11556204975_2" function="internal">
        <lane id=":11556204975_2_0" index="0" disallow="tram rail_urban rail rail_electric rail_fast ship container cable_car subway aircraft wheelchair scooter drone" speed="11.18" length="0.29" shape="719.85,1310.62 719.87,1310.33"/>
        <lane id=":11556204975_2_1" index="1" disallow="tram rail_urban rail rail_electric rail_fast ship container cable_car subway aircraft wheelchair scooter drone" speed="11.18" length="0.29" shape="723.03,1310.88 723.06,1310.59"/>
        <lane id=":11556204975_2_2" index="2" disallow="tram rail_urban rail rail_electric rail_fast ship container cable_car subway aircraft wheelchair scooter drone" speed="11.18" length="0.29" shape="726.22,1311.15 726.25,1310.85"/>
    </edge>
    <edge id=":11556204976_0" function="internal">
        <lane id=":11556204976_0_0" index="0" disallow="tram rail_urban rail rail_electric rail_fast ship container cable_car subway aircraft wheelchair scooter drone" speed="13.89" length="0.16" shape="741.67,1303.57 741.84,1303.59"/>
    </edge>
    <edge id=":11556204976_1" function="internal">
        <lane id=":11556204976_1_0" index="0" disallow="tram rail_urban rail rail_electric rail_fast ship container cable_car subway aircraft wheelchair scooter drone" speed="13.89" length="0.16" shape="742.10,1300.40 741.94,1300.38"/>
    </edge>
    <edge id=":11556204977_0" function="internal">
        <lane id=":11556204977_0_0" index="0" disallow="tram rail_urban rail rail_electric rail_fast ship container cable_car subway aircraft wheelchair scooter drone" speed="22.22" length="0.10" shape="713.88,1301.31 713.88,1301.31"/>
    </edge>
    <edge id=":11556204977_1" function="internal">
        <lane id=":11556204977_1_0" index="0" disallow="tram rail_urban rail rail_electric rail_fast ship container cable_car subway aircraft wheelchair scooter drone" speed="22.22" length="0.10" shape="714.14,1298.12 714.14,1298.12"/>
    </edge>
    <edge id=":11556204978_0" function="internal">
        <lane id=":11556204978_0_0" index="0" disallow="tram rail_urban rail rail_electric rail_fast ship container cable_car subway aircraft wheelchair scooter drone" speed="11.18" length="0.31" shape="737.30,1293.62 737.28,1293.93"/>
        <lane id=":11556204978_0_1" index="1" disallow="tram rail_urban rail rail_electric rail_fast ship container cable_car subway aircraft wheelchair scooter drone" speed="11.18" length="0.31" shape="734.12,1293.36 734.09,1293.66"/>
        <lane id=":11556204978_0_2" index="2" disallow="tram rail_urban rail rail_electric rail_fast ship container cable_car subway aircraft wheelchair scooter drone" speed="11.18" length="0.31" shape="730.93,1293.09 730.90,1293.39"/>
    </edge>
    <edge id=":11556204978_3" function="internal">
        <lane id=":11556204978_3_0" index="0" disallow="tram rail_urban rail rail_electric rail_fast ship container cable_car subway aircraft wheelchair scooter drone" speed="11.18" length="0.29" shape="724.52,1292.86 724.55,1292.57"/>
        <lane id=":11556204978_3_1" index="1" disallow="tram rail_urban rail rail_electric rail_fast ship container cable_car subway aircraft wheelchair scooter drone" speed="11.18" length="0.29" shape="727.71,1293.12 727.74,1292.83"/>
    </edge>
    <edge id=":11556204979_0" function="internal">
        <lane id=":11556204979_0_0" index="0" disallow="tram rail_urban rail rail_electric rail_fast ship container cable_car subway aircraft wheelchair scooter drone" speed="13.89" length="0.30" shape="725.53,1160.44 725.23,1160.42"/>
    </edge>
    <edge id=":11556204979_1" function="internal">
        <lane id=":11556204979_1_0" index="0" disallow="tram rail_urban rail rail_electric rail_fast ship container cable_car subway aircraft wheelchair scooter drone" speed="13.89" length="0.30" shape="725.49,1157.23 725.79,1157.25"/>
    </edge>
    <edge id=":11556204982_0" function="internal">
        <lane id=":11556204982_0_0" index="0" disallow="tram rail_urban rail rail_electric rail_fast ship container cable_car subway aircraft wheelchair scooter drone" speed="13.89" length="0.10" shape="826.07,1310.51 826.07,1310.51"/>
    </edge>
    <edge id=":11556204982_1" function="internal">
        <lane id=":11556204982_1_0" index="0" disallow="tram rail_urban rail rail_electric rail_fast ship container cable_car subway aircraft wheelchair scooter drone" speed="13.89" length="0.10" shape="826.34,1307.32 826.34,1307.32"/>
    </edge>
    <edge id=":11556204992_0" function="internal">
        <lane id=":11556204992_0_0" index="0" disallow="tram rail_urban rail rail_electric rail_fast ship container cable_car subway aircraft wheelchair scooter drone" speed="22.22" length="0.30" shape="459.81,1280.34 459.51,1280.32"/>
    </edge>
    <edge id=":11556204992_1" function="internal">
        <lane id=":11556204992_1_0" index="0" disallow="tram rail_urban rail rail_electric rail_fast ship container cable_car subway aircraft wheelchair scooter drone" speed="22.22" length="0.30" shape="459.75,1277.13 460.05,1277.15"/>
    </edge>
    <edge id=":11556204993_0" function="internal">
        <lane id=":11556204993_0_0" index="0" disallow="tram rail_urban rail rail_electric rail_fast ship container cable_car subway aircraft wheelchair scooter drone" speed="22.22" length="0.31" shape="470.83,1288.66 470.80,1288.97"/>
    </edge>
    <edge id=":11556204993_1" function="internal">
        <lane id=":11556204993_1_0" index="0" disallow="tram rail_urban rail rail_electric rail_fast ship container cable_car subway aircraft wheelchair scooter drone" speed="22.22" length="0.28" shape="467.62,1288.69 467.64,1288.41"/>
    </edge>
    <edge id=":11556204994_0" function="internal">
        <lane id=":11556204994_0_0" index="0" disallow="tram rail_urban rail rail_electric rail_fast ship container cable_car subway aircraft wheelchair scooter drone" speed="22.22" length="0.55" shape="472.09,1273.67 472.14,1273.12"/>
    </edge>
    <edge id=":11556204994_1" function="internal">
        <lane id=":11556204994_1_0" index="0" disallow="tram rail_urban rail rail_electric rail_fast ship container cable_car subway aircraft wheelchair scooter drone" speed="22.22" length="0.63" shape="468.95,1272.82 468.89,1273.45"/>
    </edge>
    <edge id=":11933696933_0" function="internal">
        <lane id=":11933696933_0_0" index="0" disallow="tram rail_urban rail rail_electric rail_fast ship container cable_car subway aircraft wheelchair scooter drone" speed="13.89" length="0.30" shape="255.16,871.15 254.86,871.12"/>
    </edge>
    <edge id=":11933696933_1" function="internal">
        <lane id=":11933696933_1_0" index="0" disallow="tram rail_urban rail rail_electric rail_fast ship container cable_car subway aircraft wheelchair scooter drone" speed="13.89" length="0.30" shape="255.13,867.93 255.43,867.96"/>
    </edge>
    <edge id=":11933696934_0" function="internal">
        <lane id=":11933696934_0_0" index="0" disallow="tram rail_urban rail rail_electric rail_fast ship container cable_car subway aircraft wheelchair scooter drone" speed="13.89" length="0.30" shape="272.63,981.51 272.33,981.49"/>
    </edge>
    <edge id=":11933696934_1" function="internal">
        <lane id=":11933696934_1_0" index="0" disallow="tram rail_urban rail rail_electric rail_fast ship container cable_car subway aircraft wheelchair scooter drone" speed="13.89" length="0.30" shape="272.57,978.30 272.87,978.32"/>
    </edge>
    <edge id=":11933696935_0" function="internal">
        <lane id=":11933696935_0_0" index="0" disallow="tram rail_urban rail rail_electric rail_fast ship container cable_car subway aircraft wheelchair scooter drone" speed="13.89" length="0.30" shape="261.66,1122.03 261.35,1122.01"/>
    </edge>
    <edge id=":11933696935_1" function="internal">
        <lane id=":11933696935_1_0" index="0" disallow="tram rail_urban rail rail_electric rail_fast ship container cable_car subway aircraft wheelchair scooter drone" speed="13.89" length="0.30" shape="261.64,1118.82 261.94,1118.85"/>
    </edge>
    <edge id=":12413894358_0" function="internal">
        <lane id=":12413894358_0_0" index="0" allow="pedestrian delivery bicycle" speed="5.09" length="5.07" shape="511.66,1142.70 510.30,1142.79 509.28,1143.30 508.61,1144.24 508.28,1145.61"/>
    </edge>
    <edge id=":12413894358_1" function="internal">
        <lane id=":12413894358_1_0" index="0" disallow="tram rail_urban rail rail_electric rail_fast ship container cable_car subway aircraft wheelchair scooter drone" speed="13.89" length="9.40" shape="511.66,1142.70 502.29,1141.92"/>
    </edge>
    <edge id=":12413894358_2" function="internal">
        <lane id=":12413894358_2_0" index="0" disallow="tram rail_urban rail rail_electric rail_fast ship container cable_car subway aircraft wheelchair scooter drone" speed="13.89" length="9.40" shape="502.55,1138.74 511.92,1139.51"/>
    </edge>
    <edge id=":12413894358_3" function="internal">
        <lane id=":12413894358_3_0" index="0" allow="pedestrian delivery bicycle" speed="6.85" length="3.28" shape="502.55,1138.74 505.30,1139.36 505.67,1139.64"/>
    </edge>
    <edge id=":12413894358_7" function="internal">
        <lane id=":12413894358_7_0" index="0" allow="pedestrian delivery bicycle" speed="6.85" length="6.96" shape="505.67,1139.64 507.16,1140.72 508.16,1142.80 508.28,1145.61"/>
    </edge>
    <edge id=":12413894358_4" function="internal">
        <lane id=":12413894358_4_0" index="0" allow="pedestrian delivery bicycle" speed="5.02" length="5.02" shape="505.10,1145.29 505.04,1143.92 504.55,1142.90 503.63,1142.23 502.29,1141.92"/>
    </edge>
    <edge id=":12413894358_5" function="internal">
        <lane id=":12413894358_5_0" index="0" allow="pedestrian delivery bicycle" speed="6.90" length="10.17" shape="505.10,1145.29 505.76,1142.57 507.12,1140.70 509.17,1139.68 511.92,1139.51"/>
    </edge>
    <edge id=":12413894358_6" function="internal">
        <lane id=":12413894358_6_0" index="0" allow="pedestrian delivery bicycle" speed="3.65" length="4.67" shape="505.10,1145.29 506.01,1144.18 506.85,1143.86 507.60,1144.34 508.28,1145.61"/>
    </edge>
    <edge id=":12413894359_0" function="internal">
        <lane id=":12413894359_0_0" index="0" allow="pedestrian delivery bicycle" speed="5.02" length="5.02" shape="510.57,1154.59 509.19,1154.65 508.17,1155.14 507.51,1156.06 507.20,1157.41"/>
    </edge>
    <edge id=":12413894359_1" function="internal">
        <lane id=":12413894359_1_0" index="0" allow="pedestrian delivery bicycle" speed="5.56" length="10.21" shape="510.57,1154.59 507.83,1153.93 505.97,1152.55 504.98,1150.48 504.86,1147.69"/>
    </edge>
    <edge id=":12413894359_2" function="internal">
        <lane id=":12413894359_2_0" index="0" allow="pedestrian delivery bicycle" speed="3.65" length="4.67" shape="510.57,1154.59 509.45,1153.68 509.13,1152.84 509.61,1152.09 510.88,1151.41"/>
    </edge>
    <edge id=":12413894359_3" function="internal">
        <lane id=":12413894359_3_0" index="0" allow="pedestrian delivery bicycle" speed="5.06" length="5.05" shape="508.04,1148.01 508.10,1149.38 508.60,1150.40 509.52,1151.08 510.88,1151.41"/>
    </edge>
    <edge id=":12413894359_4" function="internal">
        <lane id=":12413894359_4_0" index="0" allow="pedestrian delivery bicycle" speed="5.56" length="9.43" shape="508.04,1148.01 507.20,1157.41"/>
    </edge>
    <edge id=":12413894359_5" function="internal">
        <lane id=":12413894359_5_0" index="0" allow="pedestrian delivery bicycle" speed="3.65" length="4.67" shape="508.04,1148.01 507.13,1149.13 506.29,1149.44 505.53,1148.97 504.86,1147.69"/>
    </edge>
    <edge id=":12413894359_6" function="internal">
        <lane id=":12413894359_6_0" index="0" allow="pedestrian delivery bicycle" speed="5.56" length="9.50" shape="504.01,1157.15 504.86,1147.69"/>
    </edge>
    <edge id=":12413894359_7" function="internal">
        <lane id=":12413894359_7_0" index="0" allow="pedestrian delivery bicycle" speed="5.56" length="10.26" shape="504.01,1157.15 504.63,1154.40 505.98,1152.53 508.07,1151.53 510.88,1151.41"/>
    </edge>
    <edge id=":12413894359_8" function="internal">
        <lane id=":12413894359_8_0" index="0" allow="pedestrian delivery bicycle" speed="3.65" length="4.67" shape="504.01,1157.15 504.91,1156.02 505.73,1155.69 506.50,1156.15 507.20,1157.41"/>
    </edge>
    <edge id=":12413894364_0" function="internal">
        <lane id=":12413894364_0_0" index="0" allow="pedestrian delivery bicycle" speed="5.05" length="5.01" shape="576.29,1148.06 574.92,1148.14 573.91,1148.64 573.24,1149.57 572.94,1150.91"/>
    </edge>
    <edge id=":12413894364_1" function="internal">
        <lane id=":12413894364_1_0" index="0" disallow="tram rail_urban rail rail_electric rail_fast ship container cable_car subway aircraft wheelchair scooter drone" speed="13.89" length="6.03" shape="576.29,1148.06 570.27,1147.56"/>
    </edge>
    <edge id=":12413894364_2" function="internal">
        <lane id=":12413894364_2_0" index="0" disallow="tram rail_urban rail rail_electric rail_fast ship container cable_car subway aircraft wheelchair scooter drone" speed="13.89" length="6.03" shape="570.54,1144.37 576.55,1144.87"/>
    </edge>
    <edge id=":12413894364_3" function="internal">
        <lane id=":12413894364_3_0" index="0" allow="pedestrian delivery bicycle" speed="6.04" length="1.60" shape="570.54,1144.37 571.79,1144.87 571.93,1145.09"/>
    </edge>
    <edge id=":12413894364_7" function="internal">
        <lane id=":12413894364_7_0" index="0" allow="pedestrian delivery bicycle" speed="6.04" length="6.06" shape="571.93,1145.09 572.61,1146.13 572.99,1148.14 572.94,1150.91"/>
    </edge>
    <edge id=":12413894364_4" function="internal">
        <lane id=":12413894364_4_0" index="0" allow="pedestrian delivery bicycle" speed="4.18" length="3.12" shape="569.75,1150.63 570.27,1147.56"/>
    </edge>
    <edge id=":12413894364_5" function="internal">
        <lane id=":12413894364_5_0" index="0" allow="pedestrian delivery bicycle" speed="6.87" length="10.16" shape="569.75,1150.63 570.37,1147.92 571.72,1146.05 573.78,1145.04 576.55,1144.87"/>
    </edge>
    <edge id=":12413894364_6" function="internal">
        <lane id=":12413894364_6_0" index="0" allow="pedestrian delivery bicycle" speed="3.65" length="4.67" shape="569.75,1150.63 570.65,1149.51 571.48,1149.18 572.24,1149.64 572.94,1150.91"/>
    </edge>
    <edge id=":12413894365_0" function="internal">
        <lane id=":12413894365_0_0" index="0" allow="pedestrian delivery bicycle" speed="5.56" length="9.40" shape="572.64,1154.35 571.84,1163.72"/>
    </edge>
    <edge id=":12413894365_1" function="internal">
        <lane id=":12413894365_1_0" index="0" allow="pedestrian delivery bicycle" speed="5.56" length="10.23" shape="572.64,1154.35 572.01,1157.09 570.65,1158.95 568.57,1159.94 565.76,1160.07"/>
    </edge>
    <edge id=":12413894365_2" function="internal">
        <lane id=":12413894365_2_0" index="0" allow="pedestrian delivery bicycle" speed="3.65" length="4.67" shape="572.64,1154.35 571.74,1155.48 570.91,1155.81 570.15,1155.34 569.45,1154.08"/>
    </edge>
    <edge id=":12413894365_3" function="internal">
        <lane id=":12413894365_3_0" index="0" allow="pedestrian delivery bicycle" speed="5.03" length="5.02" shape="566.08,1156.88 567.45,1156.82 568.48,1156.33 569.14,1155.42 569.45,1154.08"/>
    </edge>
    <edge id=":12413894365_4" function="internal">
        <lane id=":12413894365_4_0" index="0" allow="pedestrian delivery bicycle" speed="5.56" length="10.16" shape="566.08,1156.88 568.80,1157.54 570.66,1158.90 571.68,1160.96 571.84,1163.72"/>
    </edge>
    <edge id=":12413894365_5" function="internal">
        <lane id=":12413894365_5_0" index="0" allow="pedestrian delivery bicycle" speed="3.65" length="4.67" shape="566.08,1156.88 567.19,1157.80 567.51,1158.63 567.04,1159.39 565.76,1160.07"/>
    </edge>
    <edge id=":12413894365_6" function="internal">
        <lane id=":12413894365_6_0" index="0" allow="pedestrian delivery bicycle" speed="5.08" length="5.05" shape="568.65,1163.45 568.57,1162.08 568.06,1161.07 567.12,1160.39 565.76,1160.07"/>
    </edge>
    <edge id=":12413894365_7" function="internal">
        <lane id=":12413894365_7_0" index="0" allow="pedestrian delivery bicycle" speed="5.56" length="9.40" shape="568.65,1163.45 569.45,1154.08"/>
    </edge>
    <edge id=":12413894365_8" function="internal">
        <lane id=":12413894365_8_0" index="0" allow="pedestrian delivery bicycle" speed="3.65" length="4.67" shape="568.65,1163.45 569.55,1162.32 570.38,1161.99 571.14,1162.45 571.84,1163.72"/>
    </edge>
    <edge id=":1264253435_0" function="internal">
        <lane id=":1264253435_0_0" index="0" disallow="tram rail_urban rail rail_electric rail_fast ship container cable_car subway aircraft wheelchair scooter drone" speed="11.18" length="0.43" shape="735.85,1151.18 735.82,1151.06 735.83,1150.98 735.87,1150.89 735.90,1150.76"/>
    </edge>
    <edge id=":1677788921_0" function="internal">
        <lane id=":1677788921_0_0" index="0" disallow="tram rail_urban rail rail_electric rail_fast ship container cable_car subway aircraft wheelchair scooter drone" speed="13.89" length="14.40" shape="361.84,845.63 347.49,844.42"/>
    </edge>
    <edge id=":1677788921_1" function="internal">
        <lane id=":1677788921_1_0" index="0" disallow="tram rail_urban rail rail_electric rail_fast ship container cable_car subway aircraft wheelchair scooter drone" speed="8.01" length="4.06" shape="361.84,845.63 358.05,844.75 357.91,844.65"/>
    </edge>
    <edge id=":1677788921_2" function="internal">
        <lane id=":1677788921_2_0" index="0" disallow="tram rail_urban rail rail_electric rail_fast ship container cable_car subway aircraft wheelchair scooter drone" speed="3.65" length="1.44" shape="361.84,845.63 360.71,844.73"/>
    </edge>
    <edge id=":1677788921_9" function="internal">
        <lane id=":1677788921_9_0" index="0" disallow="tram rail_urban rail rail_electric rail_fast ship container cable_car subway aircraft wheelchair scooter drone" speed="8.01" length="10.13" shape="357.91,844.65 355.45,842.88 354.03,840.00 353.80,836.11"/>
    </edge>
    <edge id=":1677788921_10" function="internal">
        <lane id=":1677788921_10_0" index="0" disallow="tram rail_urban rail rail_electric rail_fast ship container cable_car subway aircraft wheelchair scooter drone" speed="3.65" length="3.23" shape="360.71,844.73 360.38,843.90 360.84,843.13 362.10,842.44"/>
    </edge>
    <edge id=":1677788921_3" function="internal">
        <lane id=":1677788921_3_0" index="0" disallow="tram rail_urban rail rail_electric rail_fast ship container cable_car subway aircraft wheelchair scooter drone" speed="6.52" length="9.04" shape="356.99,836.38 357.13,838.85 358.04,840.69 359.69,841.88 362.10,842.44"/>
    </edge>
    <edge id=":1677788921_4" function="internal">
        <lane id=":1677788921_4_0" index="0" disallow="tram rail_urban rail rail_electric rail_fast ship container cable_car subway aircraft wheelchair scooter drone" speed="8.00" length="14.20" shape="356.99,836.38 356.12,840.17 354.25,842.78 351.37,844.19 347.49,844.42"/>
    </edge>
    <edge id=":1677788921_5" function="internal">
        <lane id=":1677788921_5_0" index="0" disallow="tram rail_urban rail rail_electric rail_fast ship container cable_car subway aircraft wheelchair scooter drone" speed="3.65" length="4.67" shape="356.99,836.38 356.09,837.51 355.26,837.84 354.50,837.37 353.80,836.11"/>
    </edge>
    <edge id=":1677788921_6" function="internal">
        <lane id=":1677788921_6_0" index="0" disallow="tram rail_urban rail rail_electric rail_fast ship container cable_car subway aircraft wheelchair scooter drone" speed="6.50" length="9.03" shape="347.76,841.23 350.23,841.08 352.06,840.18 353.25,838.53 353.80,836.11"/>
    </edge>
    <edge id=":1677788921_7" function="internal">
        <lane id=":1677788921_7_0" index="0" disallow="tram rail_urban rail rail_electric rail_fast ship container cable_car subway aircraft wheelchair scooter drone" speed="13.89" length="14.40" shape="347.76,841.23 362.10,842.44"/>
    </edge>
    <edge id=":1677788921_8" function="internal">
        <lane id=":1677788921_8_0" index="0" disallow="tram rail_urban rail rail_electric rail_fast ship container cable_car subway aircraft wheelchair scooter drone" speed="3.65" length="1.44" shape="347.76,841.23 348.88,842.13"/>
    </edge>
    <edge id=":1677788921_11" function="internal">
        <lane id=":1677788921_11_0" index="0" disallow="tram rail_urban rail rail_electric rail_fast ship container cable_car subway aircraft wheelchair scooter drone" speed="3.65" length="3.23" shape="348.88,842.13 349.21,842.96 348.75,843.72 347.49,844.42"/>
    </edge>
    <edge id=":1677788979_0" function="internal">
        <lane id=":1677788979_0_0" index="0" disallow="tram rail_urban rail rail_electric rail_fast ship container cable_car subway aircraft wheelchair scooter drone" speed="22.22" length="10.30" shape="642.96,1295.45 632.70,1294.50"/>
    </edge>
    <edge id=":1677788979_1" function="internal">
        <lane id=":1677788979_1_0" index="0" disallow="tram rail_urban rail rail_electric rail_fast ship container cable_car subway aircraft wheelchair scooter drone" speed="7.22" length="2.14" shape="642.96,1295.45 640.96,1294.68"/>
    </edge>
    <edge id=":1677788979_2" function="internal">
        <lane id=":1677788979_2_0" index="0" disallow="tram rail_urban rail rail_electric rail_fast ship container cable_car subway aircraft wheelchair scooter drone" speed="3.65" length="1.44" shape="642.96,1295.45 641.85,1294.52"/>
    </edge>
    <edge id=":1677788979_9" function="internal">
        <lane id=":1677788979_9_0" index="0" disallow="tram rail_urban rail rail_electric rail_fast ship container cable_car subway aircraft wheelchair scooter drone" speed="7.22" length="8.98" shape="640.96,1294.68 639.63,1292.88 638.99,1290.05 639.01,1286.20"/>
    </edge>
    <edge id=":1677788979_10" function="internal">