<?xml version="1.0" encoding="UTF-8"?>

<!-- generated on 2025-06-01 09:37:18 by Eclipse SUMO polyconvert Version 1.23.1
<polyconvertConfiguration xmlns:xsi="http://www.w3.org/2001/XMLSchema-instance" xsi:noNamespaceSchemaLocation="http://sumo.dlr.de/xsd/polyconvertConfiguration.xsd">

    <input>
        <net-file value="map.net.xml"/>
        <osm-files value="map.osm"/>
    </input>

    <output>
        <output-file value="map.poly.xml"/>
    </output>

</polyconvertConfiguration>
-->

<additional xmlns:xsi="http://www.w3.org/2001/XMLSchema-instance" xsi:noNamespaceSchemaLocation="http://sumo.dlr.de/xsd/additional_file.xsd">
    <location netOffset="-551462.34,-4178549.25" convBoundary="-2433.88,-1639.77,2507.35,3878.32" origBoundary="-122.443381,37.737980,-122.387303,37.787645" projParameter="+proj=utm +zone=10 +ellps=WGS84 +datum=WGS84 +units=m +no_defs"/>

    <poly id="1052763860" type="tourism" color="207,245,201" fill="1" layer="-2.00" shape="214.001616,1392.419980 217.673962,1392.520680 220.043743,1362.966442 207.937424,1362.191510 214.001616,1392.419980"/>
    <poly id="1127625117" type="water" color="181,209,209" fill="0" layer="-4.00" shape="145.725688,1042.921473 184.044605,1226.700695 213.882562,1367.865229 266.288855,1620.724244 268.373791,1643.571571 273.917288,1668.282445 285.975918,1699.014639 295.668879,1720.744754 311.700151,1741.582701 326.150470,1756.097485 340.150621,1767.957675 354.571013,1777.412840 368.607827,1786.233182 383.546370,1793.117536 399.543435,1798.344277 415.367478,1803.070669 494.978181,1817.319505 773.904402,1837.301891 789.102676,1837.886465 803.098380,1840.604844 815.146766,1846.228973 830.626528,1855.192415 838.757975,1863.199412 847.001223,1871.628752 861.935983,1879.024347 875.360605,1881.506221 1456.339087,1933.171845 1497.090158,1973.133004"/>
    <poly id="1127625118" type="water" color="181,209,209" fill="0" layer="-4.00" shape="-2433.876595,829.396801 -2222.217140,847.645600 -2083.116909,858.863073 -1988.508839,867.075144 -1894.994302,875.470346 -1799.263311,882.925773 -1701.744532,890.415301 -1604.285055,900.402069 -1503.337523,907.470883 -1305.127606,924.951677 -1104.796001,939.620912 -913.111910,956.660758 -710.126259,972.121468 -518.761469,987.870394 -451.207238,993.281179 -390.097088,998.075622 -323.652496,1004.845304 -229.799376,1012.163118 -133.812037,1020.460590 -35.345909,1028.153313 58.274542,1035.983349 145.725688,1042.921473"/>
    <poly id="113283290" type="building" color="255,230,230" fill="1" layer="-1.00" shape="286.532707,845.963459 305.496526,847.569336 304.677819,857.305902 301.769988,891.117331 300.579751,905.311891 281.615995,903.717119 286.532707,845.963459"/>
    <poly id="113283290#1" type="leisure" color="207,245,201" fill="1" layer="-2.00" shape="286.532707,845.963459 305.496526,847.569336 304.677819,857.305902 301.769988,891.117331 300.579751,905.311891 281.615995,903.717119 286.532707,845.963459"/>
    <poly id="113283290#2" type="sport" color="79,230,125" fill="1" layer="-2.00" shape="286.532707,845.963459 305.496526,847.569336 304.677819,857.305902 301.769988,891.117331 300.579751,905.311891 281.615995,903.717119 286.532707,845.963459"/>
    <poly id="1145001651" type="building" color="255,230,230" fill="1" layer="-1.00" shape="430.335182,883.626565 430.867838,874.576119 461.190648,876.830847 460.695988,885.437718 430.335182,883.626565"/>
    <poly id="1151846655" type="building" color="255,230,230" fill="1" layer="-1.00" shape="696.006164,1167.203346 718.685029,1169.011229 718.832280,1168.013580 724.333835,1168.592092 723.595448,1176.698121 722.459780,1176.602166 719.707434,1213.421317 691.977352,1210.882449 692.980216,1195.776922 693.512034,1193.860792 696.006164,1167.203346"/>
    <poly id="1151913698" type="building" color="255,230,230" fill="1" layer="-1.00" shape="626.282143,1283.796108 628.280408,1283.986265 630.438605,1261.664959 629.320633,1261.558034 628.209059,1272.979222 627.337570,1272.896045 626.282143,1283.796108"/>
    <poly id="1151913699" type="building" color="255,230,230" fill="1" layer="-1.00" shape="634.286957,1200.498410 635.185018,1200.559564 637.081453,1184.816152 632.609104,1184.455016 632.388574,1190.078966 635.320507,1190.275028 634.286957,1200.498410"/>
    <poly id="1311377591" type="parking" color="184,184,179" fill="1" layer="-1.00" shape="418.138818,1375.528590 389.306141,1373.316651 393.725558,1316.292169 422.549626,1318.504066 418.138818,1375.528590"/>
    <poly id="1311377592" type="landuse" color="194,194,130" fill="1" layer="-3.00" shape="462.969062,1244.630634 400.942877,1240.179110 404.715907,1187.910479 466.742554,1192.350932 462.969062,1244.630634"/>
    <poly id="1311377593" type="parking" color="184,184,179" fill="1" layer="-1.00" shape="371.405664,1260.275554 374.783117,1221.851417 361.886050,1220.727332 360.899689,1231.905240 318.458296,1228.198873 316.058595,1255.445062 371.405664,1260.275554"/>
    <poly id="1311377594" type="building" color="255,230,230" fill="1" layer="-1.00" shape="315.129503,957.518114 319.534410,902.745897 312.455971,902.157752 311.970712,907.890994 300.437522,906.919822 296.473460,956.036193 315.129503,957.518114"/>
    <poly id="151827241" type="building" color="255,230,230" fill="1" layer="-1.00" shape="133.965601,1383.474856 144.714248,1384.440893 149.330165,1333.741884 149.481723,1332.045245 150.163073,1324.515774 139.414418,1323.538636 138.183903,1334.371082 135.480239,1366.652701 133.965601,1383.474856"/>
    <poly id="151827246" type="building" color="255,230,230" fill="1" layer="-1.00" shape="146.826859,1384.653841 164.431256,1386.539379 169.734212,1337.264889 169.883688,1335.901098 157.120424,1334.534071 155.315636,1351.265641 150.483214,1350.747175 146.826859,1384.653841"/>
    <poly id="151827256" type="building" color="255,230,230" fill="1" layer="-1.00" shape="170.385503,1337.346637 176.371963,1337.839061 201.383195,1339.870956 212.398426,1391.034102 169.060173,1387.200818 167.767241,1386.904237 166.758867,1386.176721 166.096430,1385.063036 165.865016,1384.040814 170.385503,1337.346637"/>
    <poly id="151827256#1" type="shop" color="237,199,255" fill="1" layer="-1.00" shape="170.385503,1337.346637 176.371963,1337.839061 201.383195,1339.870956 212.398426,1391.034102 169.060173,1387.200818 167.767241,1386.904237 166.758867,1386.176721 166.096430,1385.063036 165.865016,1384.040814 170.385503,1337.346637"/>
    <poly id="169408163" type="building" color="255,230,230" fill="1" layer="-1.00" shape="182.783469,854.488484 253.079142,859.711399 255.434362,828.304178 185.138422,823.081246 182.783469,854.488484"/>
    <poly id="197053753" type="parking" color="184,184,179" fill="1" layer="-1.00" shape="186.890869,823.158801 188.454161,807.035978 262.256456,812.203275 260.610193,828.891428 186.890869,823.158801"/>
    <poly id="197054913" type="parking" color="184,184,179" fill="1" layer="-1.00" shape="191.625832,1217.294982 225.255298,1237.044760 226.647744,1222.884739 227.014638,1219.159005 234.761948,1139.764939 208.464282,1137.702696 196.176727,1080.074116 193.099837,1073.486386 188.584189,1053.320037 167.833405,1051.603367 157.832112,1050.786228 191.625832,1217.294982"/>
    <poly id="242973684" type="building" color="255,230,230" fill="1" layer="-1.00" shape="158.639382,1208.766763 128.945069,1154.147048 133.046455,1129.352448 158.228208,1123.951389 162.115757,1143.148494 150.437958,1145.627272 154.292367,1164.491305 165.977279,1162.278866 175.657358,1210.116069 158.639382,1208.766763"/>
    <poly id="242973686" type="building" color="255,230,230" fill="1" layer="-1.00" shape="126.201823,1205.412544 126.754291,1198.769893 124.562221,1198.578644 125.429175,1188.132259 122.550359,1187.892330 123.207700,1179.974371 140.551149,1181.403308 139.979454,1188.301031 143.078400,1188.553440 142.735396,1192.689854 145.843079,1192.953414 145.281301,1199.673674 148.556332,1199.938283 148.394783,1201.823480 149.494110,1202.096653 150.221209,1202.733642 150.640377,1203.313225 150.741486,1204.046151 150.734954,1205.089073 150.278660,1206.217940 149.358255,1206.911181 147.947107,1207.201917 126.201823,1205.412544"/>
    <poly id="242973688" type="building" color="255,230,230" fill="1" layer="-1.00" shape="133.046455,1129.352448 158.228208,1123.951389 154.486138,1105.432014 136.202927,1109.167595 133.046455,1129.352448"/>
    <poly id="242987859" type="building" color="255,230,230" fill="1" layer="-1.00" shape="180.672551,1014.225947 247.485412,1019.782064 249.951710,990.317217 183.138611,984.761083 180.672551,1014.225947"/>
    <poly id="242988246" type="building" color="255,230,230" fill="1" layer="-1.00" shape="365.835223,823.882784 410.166328,827.179630 411.493618,809.435436 409.926425,809.314619 410.061265,807.484736 412.552989,807.666850 412.821692,804.162413 410.382818,803.980632 410.498155,802.450200 412.937030,802.631982 413.196856,799.138585 410.599498,798.944710 410.705469,797.502983 413.302897,797.685762 413.581317,794.037147 411.072042,793.843827 411.168436,792.524088 413.677781,792.706314 413.956132,789.068794 411.490827,788.886846 411.605816,787.411889 414.062312,787.593781 414.322069,784.111479 411.768749,783.917882 411.874580,782.498344 413.802783,782.643625 414.101335,778.595705 390.346436,776.826291 386.208297,776.511777 386.005800,779.295434 369.268132,778.058425 365.835223,823.882784"/>
    <poly id="242990062" type="building" color="255,230,230" fill="1" layer="-1.00" shape="264.821692,1172.551700 297.141318,1175.062477 299.037089,1150.908722 266.717437,1148.386844 264.821692,1172.551700"/>
    <poly id="242990063" type="building" color="255,230,230" fill="1" layer="-1.00" shape="266.717437,1148.386844 299.037089,1150.908722 300.425760,1133.164892 268.105970,1130.654105 266.717437,1148.386844"/>
    <poly id="242990064" type="building" color="255,230,230" fill="1" layer="-1.00" shape="309.682927,1330.908846 370.243507,1335.805384 370.754151,1335.841882 375.058712,1283.055096 313.987098,1278.122032 309.682927,1330.908846"/>
    <poly id="242990066" type="building" color="255,230,230" fill="1" layer="-1.00" shape="388.791126,1404.768732 418.978478,1407.244394 420.723100,1386.163114 421.437755,1377.579812 391.250295,1375.104142 388.791126,1404.768732"/>
    <poly id="242990067" type="building" color="255,230,230" fill="1" layer="-1.00" shape="255.085340,1251.644783 290.908600,1254.432723 295.753077,1192.739738 263.433589,1190.217872 259.929619,1189.940684 255.085340,1251.644783"/>
    <poly id="242990068" type="building" color="255,230,230" fill="1" layer="-1.00" shape="369.700215,1342.359318 309.116118,1337.007726 308.904870,1336.984208 303.465958,1397.952267 364.260786,1403.338437 369.700215,1342.359318"/>
    <poly id="242990069" type="building" color="255,230,230" fill="1" layer="-1.00" shape="297.141318,1175.062477 264.821692,1172.551700 263.433589,1190.217872 295.753077,1192.739738 297.141318,1175.062477"/>
    <poly id="242990789" type="building" color="255,230,230" fill="1" layer="-1.00" shape="371.214939,1142.164376 371.473343,1138.892874 364.262990,1138.303850 363.975862,1141.941318 324.833320,1138.843728 323.073404,1160.990074 361.599560,1164.039400 361.332073,1167.355226 355.759195,1166.909652 354.974636,1176.812864 360.547509,1177.258437 360.336638,1179.975471 321.889758,1176.937744 320.101897,1199.328013 357.932396,1202.317476 357.425665,1208.660829 318.926070,1205.622781 317.414986,1224.619615 360.694965,1228.042771 361.995767,1211.685314 365.306019,1211.950231 371.214939,1142.164376"/>
    <poly id="242990790" type="building" color="255,230,230" fill="1" layer="-1.00" shape="613.006613,1260.345381 619.178284,1260.806011 629.320633,1261.558034 630.438605,1261.664959 635.185018,1200.559564 634.286957,1200.498410 617.964289,1199.241314 613.006613,1260.345381"/>
    <poly id="242990791" type="building" color="255,230,230" fill="1" layer="-1.00" shape="637.081453,1184.816152 638.239806,1167.392675 577.044567,1162.390321 575.463349,1179.844420 632.609104,1184.455016 637.081453,1184.816152"/>
    <poly id="242991005" type="building" color="255,230,230" fill="1" layer="-1.00" shape="331.854258,1054.651994 362.061292,1057.005499 392.550450,1059.316510 397.221432,998.732031 336.577505,994.090007 331.854258,1054.651994"/>
    <poly id="242991006" type="building" color="255,230,230" fill="1" layer="-1.00" shape="357.224006,1117.466904 387.650517,1119.899555 389.646801,1095.213874 391.240364,1095.334855 392.128772,1084.333862 390.535207,1084.212881 392.550450,1059.316510 362.061292,1057.005499 359.399834,1090.829566 358.867440,1097.050707 357.224006,1117.466904"/>
    <poly id="242991006#1" type="shop" color="237,199,255" fill="1" layer="-1.00" shape="357.224006,1117.466904 387.650517,1119.899555 389.646801,1095.213874 391.240364,1095.334855 392.128772,1084.333862 390.535207,1084.212881 392.550450,1059.316510 362.061292,1057.005499 359.399834,1090.829566 358.867440,1097.050707 357.224006,1117.466904"/>
    <poly id="242991009" type="building" color="255,230,230" fill="1" layer="-1.00" shape="504.281876,1036.187540 512.117198,1036.858293 512.792260,1028.984854 545.973558,1031.823797 547.826362,1010.410372 506.800819,1006.900611 504.281876,1036.187540"/>
    <poly id="242991010" type="building" color="255,230,230" fill="1" layer="-1.00" shape="329.192993,1088.464974 359.399834,1090.829566 362.061292,1057.005499 331.854258,1054.651994 329.192993,1088.464974"/>
    <poly id="242991011" type="building" color="255,230,230" fill="1" layer="-1.00" shape="567.828493,1012.123271 547.826362,1010.410372 545.973558,1031.823797 544.861852,1044.676290 544.292263,1051.185666 564.294296,1052.898558 567.828493,1012.123271"/>
    <poly id="242991012" type="building" color="255,230,230" fill="1" layer="-1.00" shape="357.224006,1117.466904 358.867440,1097.050707 328.767225,1094.542547 327.063325,1114.780843 357.224006,1117.466904"/>
    <poly id="242991016" type="building" color="255,230,230" fill="1" layer="-1.00" shape="302.444103,1113.339094 307.601660,1053.711827 271.962432,1050.936080 266.790231,1110.130554 302.444103,1113.339094"/>
    <poly id="242992579" type="building" color="255,230,230" fill="1" layer="-1.00" shape="277.447745,954.507611 296.473460,956.036193 300.437522,906.919822 300.579751,905.311891 281.615995,903.717119 277.447745,954.507611"/>
    <poly id="242992595" type="building" color="255,230,230" fill="1" layer="-1.00" shape="276.228276,969.156901 313.954008,972.167676 315.129503,957.518114 296.473460,956.036193 277.447745,954.507611 276.228276,969.156901"/>
    <poly id="242992600" type="building" color="255,230,230" fill="1" layer="-1.00" shape="427.496538,1187.543514 467.705631,1190.481887 471.168568,1146.954464 424.278167,1143.308284 416.050456,1149.014967 410.678786,1154.384585 408.995565,1157.314257 406.764516,1185.704305 427.496538,1187.543514"/>
    <poly id="242992604" type="building" color="255,230,230" fill="1" layer="-1.00" shape="354.858217,905.353426 393.200727,908.379532 394.090409,897.178834 355.747846,894.152723 354.858217,905.353426"/>
    <poly id="242992605" type="building" color="255,230,230" fill="1" layer="-1.00" shape="387.197162,920.358015 386.969848,922.886323 382.101395,922.456262 381.789016,925.904948 380.776625,925.809816 380.369323,930.345250 384.339819,930.691993 384.188068,932.410817 381.071554,932.136018 380.768681,935.473811 379.914701,935.401866 379.526133,939.759892 383.602183,940.129490 383.422402,942.103330 380.411591,941.829196 380.117946,945.100475 379.052708,945.005011 378.654984,949.418456 382.414143,949.752774 382.271689,951.393989 379.745055,951.167283 379.423450,954.682483 378.190927,954.574872 377.793343,958.966127 380.821765,959.240371 380.660997,960.992424 379.551790,960.885588 379.096959,965.975490 381.940545,966.226381 381.836396,967.379641 375.004786,966.770803 374.171878,975.952509 398.901192,978.160737 399.734476,968.923559 398.000167,968.768405 398.701338,960.928409 400.435649,961.083563 401.420411,950.171942 397.045027,949.778260 397.224811,947.804420 401.600197,948.198102 402.613900,936.887231 398.291288,936.504976 398.442903,934.808343 402.765516,935.190597 403.693523,924.899958 399.502959,924.529630 399.920127,919.827829 404.594869,920.245587 405.532526,909.821865 403.542905,909.642913 404.574790,898.243394 405.886526,898.362603 406.814541,888.071965 400.088635,887.452678 400.410879,883.837624 405.129613,884.266753 405.414112,881.050894 406.875522,881.182141 407.661988,872.388484 406.244618,872.257514 406.557498,868.731164 404.110114,868.504950 404.422365,865.078454 406.869750,865.304669 407.617981,856.987871 398.382795,856.175266 398.250401,857.616828 396.551232,857.472991 396.683695,856.020335 387.563015,855.208463 386.966417,861.828629 389.211422,862.020279 389.050023,863.872186 386.796280,863.669385 386.530870,866.652363 385.562514,866.557508 385.164155,871.070806 387.646773,871.297237 387.041019,877.972822 384.558403,877.746391 384.207647,881.694126 385.818728,881.837406 385.487194,885.530070 381.252637,885.148379 381.110532,886.734119 371.206364,885.850764 371.320229,884.553325 367.296931,884.195160 367.628178,880.546876 368.552561,880.630357 368.969015,876.039504 366.627262,875.825060 367.176521,869.726077 369.210195,869.905297 369.636156,865.203551 368.623757,865.108421 368.889021,862.147633 366.714483,861.956431 366.903488,859.916077 369.386179,860.131407 369.954314,853.832826 360.604752,852.997354 360.491028,854.272604 358.932791,854.129661 359.055881,852.765708 349.996852,851.954266 349.229738,860.481760 351.597921,860.696365 351.266331,864.400125 349.012587,864.197335 348.728737,867.313341 347.152886,867.170290 346.357467,875.997181 347.924578,876.129082 347.678264,878.879178 351.261360,879.201280 350.901602,883.182245 345.047153,882.657244 344.090697,893.280569 345.094354,893.364546 344.043679,904.963669 343.172078,904.891618 342.253580,915.082463 350.027231,915.774864 349.648603,919.955427 342.896156,919.358210 342.555206,923.150674 341.613280,923.055990 341.291063,926.671046 342.206633,926.754469 341.837166,930.879614 343.729963,931.046847 343.588354,932.554923 341.730791,932.387911 341.370760,936.413258 340.490354,936.341151 340.196376,939.667906 341.235190,939.763199 340.866352,943.788490 342.864775,943.967482 342.713242,945.653022 340.749983,945.485346 340.409104,949.266715 339.405524,949.171644 339.111547,952.498399 340.079963,952.582153 339.710777,956.662919 341.779662,956.842354 341.116568,964.238780 339.100533,964.059677 338.986396,965.401496 338.044406,965.317907 337.769650,968.389590 338.861310,968.485215 338.425446,973.364426 346.568777,974.092434 346.644474,973.260759 348.079444,973.391829 348.003537,974.256789 356.296537,974.996843 356.363078,974.220587 357.771622,974.351493 357.705011,975.138844 366.077213,975.890501 366.939397,966.254069 359.148249,965.550447 359.309291,963.754014 360.506580,963.861401 360.951823,958.893487 359.525659,958.762470 359.753243,956.189781 361.918879,956.392021 362.136678,953.974606 363.756554,954.117937 364.249260,948.606650 362.752629,948.475189 362.970428,946.057774 359.642661,945.759463 359.841797,943.508361 363.178374,943.806727 363.471873,940.557637 364.959697,940.689042 365.432834,935.488302 363.724872,935.344417 363.989993,932.405818 360.926259,932.142453 361.096250,930.323886 364.151107,930.598290 364.416088,927.681881 366.123982,927.836862 366.569230,922.868948 365.063786,922.737432 365.452067,918.423785 370.426152,918.865597 370.559098,917.335275 376.545575,917.872221 376.412698,919.391447 387.197162,920.358015"/>
    <poly id="242993709" type="building" color="255,230,230" fill="1" layer="-1.00" shape="611.317730,1108.050987 618.105589,1108.593175 618.335003,1105.743120 644.412419,1107.816373 645.684286,1091.946966 612.818946,1089.331521 611.317730,1108.050987"/>
    <poly id="242993710" type="building" color="255,230,230" fill="1" layer="-1.00" shape="648.094547,1061.816136 648.247053,1059.986368 648.775329,1060.022994 649.014476,1057.028762 648.327723,1056.980037 648.729727,1051.912004 649.310783,1051.960060 649.559720,1048.810554 648.925815,1048.762164 649.145732,1046.023003 649.718050,1046.059908 649.956986,1043.098960 649.455204,1043.051406 649.866298,1037.939048 650.456162,1037.987160 650.695450,1034.970737 650.176050,1034.923071 650.396318,1032.128436 650.968567,1032.176436 651.198415,1029.259812 650.696632,1029.212258 651.098358,1024.188604 651.837891,1024.248757 652.096059,1021.032738 651.418112,1020.984070 651.542371,1019.442602 627.269507,1017.513881 626.495033,1027.161941 629.602907,1027.403493 629.106239,1033.513892 626.007177,1033.272395 625.672102,1037.508701 628.630303,1037.738212 628.104688,1044.247860 625.146489,1044.018350 624.524731,1051.803356 627.482857,1052.043961 627.042898,1057.544475 624.084775,1057.303870 623.874656,1059.887758 648.094547,1061.816136"/>
    <poly id="242993711" type="building" color="255,230,230" fill="1" layer="-1.00" shape="644.183199,1107.848210 629.339682,1106.667020 629.110544,1109.472695 626.671905,1139.925118 641.515362,1141.106304 644.183199,1107.848210"/>
    <poly id="242993712" type="building" color="255,230,230" fill="1" layer="-1.00" shape="645.684286,1091.946966 648.094547,1061.816136 623.874656,1059.887758 587.205829,1056.970994 584.795791,1087.101839 612.818946,1089.331521 645.684286,1091.946966"/>
    <poly id="242993713" type="building" color="255,230,230" fill="1" layer="-1.00" shape="612.818946,1089.331521 584.795791,1087.101839 582.530010,1115.314102 610.553070,1117.543777 611.317730,1108.050987 612.818946,1089.331521"/>
    <poly id="242993714" type="building" color="255,230,230" fill="1" layer="-1.00" shape="627.269507,1017.513881 590.600492,1014.597103 587.205829,1056.970994 623.874656,1059.887758 624.084775,1057.303870 624.524731,1051.803356 625.146489,1044.018350 625.672102,1037.508701 626.007177,1033.272395 626.495033,1027.161941 627.269507,1017.513881"/>
    <poly id="242993715" type="building" color="255,230,230" fill="1" layer="-1.00" shape="608.879086,1138.514509 610.553070,1117.543777 582.530010,1115.314102 580.847289,1136.284784 608.879086,1138.514509"/>
    <poly id="242993716" type="building" color="255,230,230" fill="1" layer="-1.00" shape="608.879086,1138.514509 626.671905,1139.925118 629.110544,1109.472695 618.105589,1108.593175 611.317730,1108.050987 610.553070,1117.543777 608.879086,1138.514509"/>
    <poly id="242995368" type="building" color="255,230,230" fill="1" layer="-1.00" shape="670.820873,1064.522906 695.287088,1066.497363 698.721640,1024.867148 674.104651,1023.035969 670.820873,1064.522906"/>
    <poly id="242995375" type="building" color="255,230,230" fill="1" layer="-1.00" shape="655.001669,1284.443711 714.725471,1289.370771 715.852316,1289.466669 715.928891,1288.501858 719.303748,1247.958604 658.452726,1242.946719 655.001669,1284.443711"/>
    <poly id="242995378" type="building" color="255,230,230" fill="1" layer="-1.00" shape="692.668174,1318.833542 700.689373,1319.317036 701.181389,1311.165063 693.168990,1310.681625 692.668174,1318.833542"/>
    <poly id="242995380" type="amenity" color="237,199,199" fill="1" layer="-1.00" shape="676.680988,1343.941018 677.593622,1331.952711 679.266406,1332.074250 680.390089,1317.357822 678.717302,1317.236283 679.610921,1305.469764 652.107267,1303.387368 649.168654,1341.858574 676.680988,1343.941018"/>
    <poly id="242995380#1" type="building" color="255,230,230" fill="1" layer="-1.00" shape="676.680988,1343.941018 677.593622,1331.952711 679.266406,1332.074250 680.390089,1317.357822 678.717302,1317.236283 679.610921,1305.469764 652.107267,1303.387368 649.168654,1341.858574 676.680988,1343.941018"/>
    <poly id="242995382" type="building" color="255,230,230" fill="1" layer="-1.00" shape="699.454609,1337.660941 707.562744,1338.322517 708.556099,1326.112818 700.447952,1325.451240 699.454609,1337.660941"/>
    <poly id="242995383" type="building" color="255,230,230" fill="1" layer="-1.00" shape="731.998758,1069.592407 734.614689,1032.073395 731.524575,1027.637872 704.356749,1025.235679 702.076764,1051.450660 707.270957,1051.894070 705.939838,1067.363660 731.998758,1069.592407"/>
    <poly id="242995399" type="building" color="255,230,230" fill="1" layer="-1.00" shape="681.953550,1350.065733 691.074079,1350.811368 692.971288,1328.000226 683.841926,1327.254534 681.953550,1350.065733"/>
    <poly id="242995404" type="building" color="255,230,230" fill="1" layer="-1.00" shape="719.044585,1115.012414 722.795271,1115.280264 723.084947,1111.265580 721.183179,1111.131487 721.366341,1108.636193 718.865905,1108.453928 718.749951,1110.073116 715.888526,1109.866376 716.091340,1107.049440 712.789721,1106.806628 713.089114,1102.647766 716.681330,1102.903514 716.951842,1099.132806 725.633017,1099.753643 725.951368,1095.384090 721.936572,1095.092376 722.216176,1091.277345 725.764356,1091.532818 726.063616,1087.396146 725.315280,1087.335930 725.595447,1083.432140 721.695080,1083.152246 721.974825,1079.315025 725.452546,1079.570052 725.693687,1076.265163 727.172885,1076.363294 727.442700,1072.703536 723.568752,1072.423809 723.771077,1069.684538 712.246118,1068.845981 711.908682,1073.448417 712.727484,1073.509078 712.650767,1074.496078 711.488590,1074.411053 711.363267,1076.118944 709.919371,1076.009944 709.224358,1085.614120 712.561218,1085.857153 712.464777,1087.176890 714.322510,1087.310701 714.245161,1088.397556 710.600160,1088.130380 709.963053,1096.936057 713.819374,1097.215666 713.694121,1098.912462 704.599176,1098.255732 704.464344,1100.074517 701.233117,1099.843250 700.615533,1108.349477 703.996423,1108.592786 703.861170,1110.478140 711.274465,1111.013269 711.158864,1112.576982 707.364207,1112.297764 706.765778,1120.560014 710.349179,1120.815704 710.146578,1123.599355 707.672571,1123.417261 707.016097,1132.500200 710.740351,1132.767877 710.508797,1135.950778 706.599647,1135.670835 705.972759,1144.254671 709.353635,1144.497982 709.141314,1147.425812 713.754820,1147.754597 713.841468,1146.590133 721.545254,1147.149301 721.825489,1143.234416 718.462229,1142.991211 718.780856,1138.577277 722.355440,1138.832916 722.905557,1131.247177 719.251767,1130.979941 719.541371,1126.976352 722.939870,1127.219781 723.238987,1123.105298 721.997544,1123.019769 722.257915,1119.459809 718.736171,1119.204505 719.044585,1115.012414"/>
    <poly id="242995406" type="building" color="255,230,230" fill="1" layer="-1.00" shape="666.641359,1144.571628 669.458592,1144.800263 669.534812,1143.890926 676.630568,1144.490587 676.554418,1145.388829 685.384510,1146.132616 687.299704,1123.266116 691.569499,1123.625999 691.760336,1121.308278 687.490469,1120.959490 688.624079,1107.463618 692.973155,1107.824004 693.153780,1105.728125 688.804703,1105.367740 689.919858,1092.004896 694.621125,1092.389702 694.830703,1089.894574 690.129505,1089.498673 691.167879,1077.133926 695.710609,1077.517729 696.015150,1073.935858 691.472419,1073.552055 691.977307,1067.541569 673.233978,1065.980569 672.919164,1069.795378 670.440822,1071.688100 670.098041,1075.746830 672.233810,1077.879554 671.586006,1085.597821 669.442587,1087.459376 669.226840,1090.930856 670.957223,1093.094302 670.280119,1101.267293 667.791365,1103.415143 667.511191,1105.932015 669.642109,1108.830288 668.994660,1116.493081 666.593781,1118.674773 666.250407,1121.435343 668.374830,1123.967428 667.708293,1131.863103 665.138382,1134.310014 664.792131,1137.525476 667.070287,1139.426098 666.641359,1144.571628"/>
    <poly id="24547823" type="tourism" color="207,245,201" fill="1" layer="-2.00" shape="471.467833,1412.523589 481.455605,1289.661131 554.652869,1296.480519 640.258290,1305.087693 625.419415,1425.844501 471.467833,1412.523589"/>
    <poly id="24547824" type="leisure" color="207,245,201" fill="1" layer="-2.00" shape="604.851588,1402.303302 504.666957,1394.137092 509.665641,1333.377176 609.842130,1341.554477 604.851588,1402.303302"/>
    <poly id="24547824#1" type="sport" color="79,230,125" fill="1" layer="-2.00" shape="604.851588,1402.303302 504.666957,1394.137092 509.665641,1333.377176 609.842130,1341.554477 604.851588,1402.303302"/>
    <poly id="24547825" type="parking" color="184,184,179" fill="1" layer="-1.00" shape="621.378545,1358.636571 625.357757,1312.982144 629.504006,1313.363406 632.011365,1313.834168 633.801571,1314.888449 635.052323,1316.283277 635.853104,1317.797308 635.278773,1330.619908 641.771815,1342.932428 643.568316,1355.525923 645.209873,1360.584691 621.378545,1358.636571"/>
    <poly id="255094356" type="building" color="255,230,230" fill="1" layer="-1.00" shape="305.496526,847.569336 324.055642,849.095046 319.534410,902.745897 312.455971,902.157752 311.970712,907.890994 300.437522,906.919822 300.579751,905.311891 301.769988,891.117331 304.305521,891.332974 307.151704,857.521158 304.677819,857.305902 305.496526,847.569336"/>
    <poly id="256461072" type="building" color="255,230,230" fill="1" layer="-1.00" shape="238.911142,1091.958945 234.861342,1139.366131 210.113678,1137.346893 211.276615,1123.263099 207.667058,1122.963082 208.201493,1116.397990 205.947677,1116.217428 206.520126,1109.208761 204.970604,1109.088092 206.000065,1096.623381 202.293608,1096.322759 202.913086,1088.837287 205.476097,1088.875547 238.911142,1091.958945"/>
    <poly id="256461078" type="building" color="255,230,230" fill="1" layer="-1.00" shape="218.129514,1074.109325 236.962157,1075.481229 238.069476,1060.442891 241.749733,1060.710079 242.038759,1056.761950 222.334418,1055.329092 222.036037,1059.365925 233.772303,1060.227312 233.348414,1066.016421 218.803555,1064.948800 218.129514,1074.109325"/>
    <poly id="256461084" type="building" color="255,230,230" fill="1" layer="-1.00" shape="238.911142,1091.958945 240.186898,1078.153247 206.760536,1075.080995 205.476097,1088.875547 238.911142,1091.958945"/>
    <poly id="256461086" type="building" color="255,230,230" fill="1" layer="-1.00" shape="194.314871,1069.355440 217.649997,1070.511427 219.038444,1055.585804 190.978884,1053.512572 194.314871,1069.355440"/>