<configuration>
    <input>
        <net-file value="map.net.xml"/>
        <route-files value="car_routes.rou.xml"/>
        <additional-files value="rsu_decal.xml,car_vtypes.xml"/>
    </input>
    <gui_only>
        <gui-settings-file value="settings.xml"/>
    </gui_only>
</configuration>